data_PCOD9529882
_publ_section_title
;
Structure prediction by ZEFSAII (Michael W. Deem and Ramdas Pophale) SiO2 
 PCOD9529882
Probable space group: I B C A 
;
_chemical_formula_sum "Si O2"
_cell_formula_units_Z 104
_cell_length_a 15.005251
_cell_length_b 14.598402
_cell_length_c 22.009799
_cell_angle_alpha 90.000000
_cell_angle_beta 90.000000
_cell_angle_gamma 90.000000
_cell_volume 4821.305594
_symmetry_space_group_name_H-M "I B C A "
_symmetry_group_IT_number 73
_symmetry_cell_setting 'orthorhombic'
loop_
_space_group_symop_operation_xyz
x,y,z
-x,1/2-y,z
x,-y,1/2-z
1/2-x,y,-z
-x,-y,-z
x,1/2+y,-z
-x,y,1/2+z
1/2+x,-y,z
1/2+x,1/2+y,1/2+z
1/2-x,-y,1/2+z
1/2+x,1/2-y,-z
-x,1/2+y,1/2-z
1/2-x,1/2-y,1/2-z
1/2+x,y,1/2-z
1/2-x,1/2+y,z
x,1/2-y,1/2+z
loop_
_atom_site_type_symbol
_atom_site_label
_atom_site_fract_x
_atom_site_fract_y
_atom_site_fract_z
Si Si1 0.169348 0.870069 0.285763
Si Si2 0.365511 0.544137 0.344617
Si Si3 0.628251 0.372189 0.174257
Si Si4 0.917805 0.315472 0.700929
Si Si5 0.750000 0.646531 0.000000
Si Si6 0.907217 0.289493 0.417244
Si Si7 0.163646 0.451579 0.106394
O O1 0.140347 0.906282 0.220308
O O2 0.273160 0.887064 0.298223
O O3 0.157382 0.761990 0.290385
O O4 0.115570 0.936680 0.332661
O O5 0.421000 0.608300 0.389840
O O6 0.265089 0.547575 0.369679
O O7 0.569452 0.370123 0.235647
O O8 0.614885 0.277032 0.139464
O O9 0.620462 0.451593 0.123968
O O10 0.890767 0.379141 0.646000
O O11 0.000000 0.250000 0.688407
O O12 0.681705 0.705955 0.958799
O O13 0.818612 0.583078 0.961598
O O14 0.000000 0.250000 0.444190
#
# Coordination Sequence:
#
# PCOD9529882 Si02
#       7
#    16  16  16  16   8  16  16
#     4  10  18  33  59  86 127 166 202 249 317 397
#     4   9  18  34  57  88 119 165 208 254 316 384
#     4  11  21  38  64  92 123 166 214 267 338 404
#     4  12  23  35  56  97 136 167 200 258 337 414
#     4  10  24  46  66  90 122 178 234 288 328 382
#     4  11  23  40  65  93 128 168 224 278 330 395
#     4  10  22  41  62  86 126 169 219 271 322 393
#
# _framework density 21.570920000000001
#
# number of rings (size 3 to 8) (size 9 to 14) (size 15 to 20)
#    0.000    1.538    3.077    3.231    0.000    2.462 
#    2.769    2.308    0.000    0.000    0.000    0.000 
#    0.000    0.000    0.000    0.000    0.000    0.000 
#
# Total GULP energy -290071.365679 kJ/mol
# GULP energy per Si atom -5578.295494 kJ/mol
# Density = 2.152182 g / cm^3
# Si number density = 21.570920 Si / 1000 Ang^3
#
#
#
# Elastic Constant Matrix: (Units=GPa)
#
#
# Indices 1 2 3 4 5 6 
#
# 1 49.9983 11.9898 7.2970 0.0000 0.0000 0.0000
# 2 11.9898 88.5592 20.2129 0.0000 0.0000 0.0000
# 3 7.2970 20.2129 74.9170 0.0000 0.0000 0.0000
# 4 0.0000 0.0000 0.0000 21.6657 0.0000 0.0000
# 5 0.0000 0.0000 0.0000 0.0000 -64.3294 0.0000
# 6 0.0000 0.0000 0.0000 0.0000 0.0000 30.5592
#
#
#
# Elastic Compliance Matrix: (Units=1/GPa)
#
#
# Indices 1 2 3 4 5 6 
#
# 1 0.020799 -0.002508 -0.001349 0.000000 0.000000 0.000000
# 2 -0.002508 0.012335 -0.003084 0.000000 0.000000 0.000000
# 3 -0.001349 -0.003084 0.014312 0.000000 0.000000 0.000000
# 4 0.000000 0.000000 0.000000 0.046156 0.000000 0.000000
# 5 0.000000 0.000000 0.000000 0.000000 -0.015545 0.000000
# 6 0.000000 0.000000 0.000000 0.000000 0.000000 0.032723
#
#
# Mechanical properties :
#
#
# Convention : Reuss Voigt Hill
#
# Bulk Modulus (GPa) = 29.79394 32.49709 31.14552
# Shear Modulus (GPa) = 36.80527 9.17742 22.99135
#
# Velocity S-wave (km/s) = 4.13515 2.06489 3.26828
# Velocity P-wave (km/s) = 6.05321 4.55883 5.35837
#
# Compressibility (1/GPa) = 0.03356387
#
# Stress axis : x y z
#
# Youngs Moduli (GPa) = 48.07919 81.06826 69.87370
#
# Poissons Ratio (x) = 0.20332 0.09427
# Poissons Ratio (y) = 0.12058 0.21548
# Poissons Ratio (z) = 0.06487 0.25000
#
# Static dielectric constant tensor:
#      x y z
#    x 1.903860 0.000000 0.000000 
#    y 0.000000 1.895300 0.000000 
#    z 0.000000 0.000000 1.829010 
# 
# From -- ./inp_files/29845.got.cif
#   From: 2010.05.17/outbox.cif.g08.bks.cpg/sg73_15_cif.got.tgz:29845.got - 2010.06.03 17:35:07.
