data_PCOD9529227
_publ_section_title
;
Structure prediction by ZEFSAII (Michael W. Deem and Ramdas Pophale) SiO2 
 PCOD9529227
Probable space group: I B A M
;
_chemical_formula_sum "Si O2"
_cell_formula_units_Z 88
_cell_length_a 14.326812
_cell_length_b 20.069593
_cell_length_c 14.815401
_cell_angle_alpha 90.000000
_cell_angle_beta 90.000000
_cell_angle_gamma 90.000000
_cell_volume 4259.920930
_symmetry_space_group_name_H-M "I B A M"
_symmetry_group_IT_number 72
_symmetry_cell_setting 'orthorhombic'
loop_
_space_group_symop_operation_xyz
x,y,z
-x,-y,z
x,-y,1/2-z
-x,y,1/2-z
-x,-y,-z
x,y,-z
-x,y,1/2+z
x,-y,1/2+z
1/2+x,1/2+y,1/2+z
1/2-x,1/2-y,1/2+z
1/2+x,1/2-y,-z
1/2-x,1/2+y,-z
1/2-x,1/2-y,1/2-z
1/2+x,1/2+y,1/2-z
1/2-x,1/2+y,z
1/2+x,1/2-y,z
loop_
_atom_site_type_symbol
_atom_site_label
_atom_site_fract_x
_atom_site_fract_y
_atom_site_fract_z
Si Si1 0.383423 0.238475 0.101269
Si Si2 0.550228 0.331613 0.155790
Si Si3 0.752863 0.500000 0.750000
Si Si4 0.897901 0.023092 0.396194
Si Si5 0.177552 0.716320 0.606883
Si Si6 0.105988 0.379681 0.251343
O O1 0.469732 0.289435 0.105936
O O2 0.288608 0.279617 0.116941
O O3 0.391628 0.179672 0.174365
O O4 0.378263 0.209768 0.000000
O O5 0.500000 0.348856 0.250000
O O6 0.593023 0.397130 0.111556
O O7 0.634594 0.279371 0.159786
O O8 0.683175 0.506531 0.834704
O O9 0.818597 0.563221 0.731800
O O10 0.885079 0.003062 0.500000
O O11 0.000000 0.000000 0.365407
O O12 0.155627 0.720289 0.500000
O O13 0.132576 0.653170 0.655379
O O14 0.000000 0.405389 0.250000
#
# Coordination Sequence:
#
# PCOD9529227 Si02
#       6
#    16  16   8  16  16  16
#     4  11  23  39  67 102 135 173 221 283 348 408
#     4  12  22  40  69 100 139 174 218 278 342 404
#     4  12  28  46  70  92 140 184 238 276 340 410
#     4  11  26  46  69 102 140 181 227 278 340 413
#     4  11  23  39  64  98 133 174 221 278 341 405
#     4  12  25  45  66  97 130 182 231 287 334 407
#
# _framework density 20.65766
#
# number of rings (size 3 to 8) (size 9 to 14) (size 15 to 20)
#    0.000    0.545    3.636    4.909    5.091    2.909 
#    0.000    0.000    0.000    3.273    0.000    0.000 
#    0.000    0.000    0.000    0.000    0.000    0.000 
#
# Total GULP energy -246010.244093 kJ/mol
# GULP energy per Si atom -5591.141911 kJ/mol
# Density = 2.061064 g / cm^3
# Si number density = 20.657660 Si / 1000 Ang^3
#
#
#
# Elastic Constant Matrix: (Units=GPa)
#
#
# Indices 1 2 3 4 5 6 
#
# 1 126.6669 14.3961 29.0489 0.0000 0.0000 0.0000
# 2 14.3961 31.4299 0.8538 0.0000 0.0000 -0.0001
# 3 29.0489 0.8538 107.4638 0.0000 0.0000 -0.0001
# 4 0.0000 0.0000 0.0000 12.4170 0.0000 -0.0001
# 5 0.0000 0.0000 0.0000 0.0000 23.6290 0.0000
# 6 0.0000 -0.0001 -0.0001 -0.0001 0.0000 111.5816
#
#
#
# Elastic Compliance Matrix: (Units=1/GPa)
#
#
# Indices 1 2 3 4 5 6 
#
# 1 0.008895 -0.004010 -0.002372 0.000000 0.000000 0.000000
# 2 -0.004010 0.033631 0.000817 0.000000 0.000000 0.000000
# 3 -0.002372 0.000817 0.009940 0.000000 0.000000 0.000000
# 4 0.000000 0.000000 0.000000 0.080535 0.000000 0.000000
# 5 0.000000 0.000000 0.000000 0.000000 0.042321 0.000000
# 6 0.000000 0.000000 0.000000 0.000000 0.000000 0.008962
#
#
# Mechanical properties :
#
#
# Convention : Reuss Voigt Hill
#
# Bulk Modulus (GPa) = 24.19244 39.35091 31.77168
# Shear Modulus (GPa) = 23.90140 44.27630 34.08885
#
# Velocity S-wave (km/s) = 3.40519 4.63464 4.06665
# Velocity P-wave (km/s) = 5.21508 6.90871 6.12076
#
# Compressibility (1/GPa) = 0.04133523
#
# Stress axis : x y z
#
# Youngs Moduli (GPa) = 112.42896 29.73427 100.60087
#
# Poissons Ratio (x) = 0.11922 0.23867
# Poissons Ratio (y) = 0.45079 -0.08216
# Poissons Ratio (z) = 0.26673 -0.02428
#
# Static dielectric constant tensor:
#      x y z
#    x 1.739310 0.000000 0.000000 
#    y 0.000000 1.765810 0.000000 
#    z 0.000000 0.000000 1.755720 
# 
# From -- ./inp_files/21711.got.cif
#   From: 2010.05.17/outbox.cif.g08.bks.cpg/sg72_11_cif.got.tgz:21711.got - 2010.06.03 17:03:01.
