data_PCOD9529190
_publ_section_title
;
Structure prediction by ZEFSAII (Michael W. Deem and Ramdas Pophale) SiO2 
 PCOD9529190
Probable space group: I B A M
;
_chemical_formula_sum "Si O2"
_cell_formula_units_Z 96
_cell_length_a 15.216113
_cell_length_b 14.459187
_cell_length_c 19.774880
_cell_angle_alpha 90.000000
_cell_angle_beta 90.000000
_cell_angle_gamma 90.000000
_cell_volume 4350.723224
_symmetry_space_group_name_H-M "I B A M"
_symmetry_group_IT_number 72
_symmetry_cell_setting 'orthorhombic'
loop_
_space_group_symop_operation_xyz
x,y,z
-x,-y,z
x,-y,1/2-z
-x,y,1/2-z
-x,-y,-z
x,y,-z
-x,y,1/2+z
x,-y,1/2+z
1/2+x,1/2+y,1/2+z
1/2-x,1/2-y,1/2+z
1/2+x,1/2-y,-z
1/2-x,1/2+y,-z
1/2-x,1/2-y,1/2-z
1/2+x,1/2+y,1/2-z
1/2-x,1/2+y,z
1/2+x,1/2-y,z
loop_
_atom_site_type_symbol
_atom_site_label
_atom_site_fract_x
_atom_site_fract_y
_atom_site_fract_z
Si Si1 0.000000 0.249856 0.750000
Si Si2 0.238727 0.316066 0.851639
Si Si3 0.724877 0.461857 0.000000
Si Si4 0.926852 0.119880 0.000000
Si Si5 0.156537 0.350555 0.716791
Si Si6 0.748872 0.740907 0.000000
Si Si7 0.459588 0.598105 0.862241
Si Si8 0.229012 0.012190 0.859048
O O1 0.058393 0.319591 0.705154
O O2 0.036002 0.177749 0.806238
O O3 0.164167 0.338954 0.797620
O O4 0.287836 0.228189 0.821618
O O5 0.299518 0.407585 0.843742
O O6 0.215123 0.297424 0.928872
O O7 0.730025 0.350292 0.000000
O O8 0.773022 0.492394 0.932255
O O9 0.633640 0.524659 0.000000
O O10 0.853538 0.202630 0.000000
O O11 0.988244 0.120645 0.932600
O O12 0.201978 0.442767 0.691132
O O13 0.500000 0.500000 0.838166
O O14 0.356106 0.575694 0.869969
#
# Coordination Sequence:
#
# PCOD9529190 Si02
#       8
#     8  16   8   8  16   8  16  16
#     4  12  27  42  61  96 136 184 226 294 338 410
#     4  11  22  42  66  95 130 174 223 283 338 428
#     4  12  23  38  68 101 140 183 224 278 348 423
#     4  12  24  42  65 106 146 179 225 288 357 421
#     4  11  25  43  65  96 135 175 238 277 346 419
#     4  12  22  39  64  96 139 179 228 272 336 428
#     4  12  23  39  64  99 141 172 216 286 364 424
#     4  12  23  42  69  99 133 181 223 282 354 424
#
# _framework density 22.065296
#
# number of rings (size 3 to 8) (size 9 to 14) (size 15 to 20)
#    0.000    0.333    5.000    5.500    0.000    1.333 
#    0.000    1.667    0.000    0.000    0.000    2.333 
#    0.000    0.000    0.000    0.000    0.000    0.000 
#
# Total GULP energy -267610.818290 kJ/mol
# GULP energy per Si atom -5575.225381 kJ/mol
# Density = 2.201507 g / cm^3
# Si number density = 22.065296 Si / 1000 Ang^3
#
#
#
# Elastic Constant Matrix: (Units=GPa)
#
#
# Indices 1 2 3 4 5 6 
#
# 1 35.9255 31.0767 8.3977 0.0000 0.0000 0.0000
# 2 31.0767 135.6137 44.1251 0.0000 0.0000 0.0000
# 3 8.3977 44.1251 140.6089 0.0000 0.0000 0.0000
# 4 0.0000 0.0000 0.0000 27.1440 0.0000 0.0000
# 5 0.0000 0.0000 0.0000 0.0000 -35.3196 0.0000
# 6 0.0000 0.0000 0.0000 0.0000 0.0000 33.3700
#
#
#
# Elastic Compliance Matrix: (Units=1/GPa)
#
#
# Indices 1 2 3 4 5 6 
#
# 1 0.034745 -0.008116 0.000472 0.000000 0.000000 0.000000
# 2 -0.008116 0.010108 -0.002687 0.000000 0.000000 0.000000
# 3 0.000472 -0.002687 0.007927 0.000000 0.000000 0.000000
# 4 0.000000 0.000000 0.000000 0.036840 0.000000 0.000000
# 5 0.000000 0.000000 0.000000 0.000000 -0.028313 0.000000
# 6 0.000000 0.000000 0.000000 0.000000 0.000000 0.029967
#
#
# Mechanical properties :
#
#
# Convention : Reuss Voigt Hill
#
# Bulk Modulus (GPa) = 31.13528 53.26082 42.19805
# Shear Modulus (GPa) = 40.76854 20.27546 30.52200
#
# Velocity S-wave (km/s) = 4.30307 3.03460 3.72325
# Velocity P-wave (km/s) = 6.23135 6.03893 6.13589
#
# Compressibility (1/GPa) = 0.03211791
#
# Stress axis : x y z
#
# Youngs Moduli (GPa) = 28.78082 98.93137 126.14977
#
# Poissons Ratio (x) = 0.80289 -0.05950
# Poissons Ratio (y) = 0.23357 0.33901
# Poissons Ratio (z) = -0.01357 0.26586
#
# Static dielectric constant tensor:
#      x y z
#    x 1.858720 0.000000 0.000000 
#    y 0.000000 1.864790 0.000000 
#    z 0.000000 0.000000 1.906280 
# 
# From -- ./inp_files/38122.got.cif
#   From: 2010.05.17/outbox.cif.g08.bks.cpg/sg72_20_cif.got.tgz:38122.got - 2010.06.03 17:03:01.
