data_PCOD9529618
_publ_section_title
;
Structure prediction by ZEFSAII (Michael W. Deem and Ramdas Pophale) SiO2 
 PCOD9529618
Probable space group: I B C A 
;
_chemical_formula_sum "Si O2"
_cell_formula_units_Z 88
_cell_length_a 13.841318
_cell_length_b 25.585289
_cell_length_c 10.942590
_cell_angle_alpha 90.000000
_cell_angle_beta 90.000000
_cell_angle_gamma 90.000000
_cell_volume 3875.144493
_symmetry_space_group_name_H-M "I B C A "
_symmetry_group_IT_number 73
_symmetry_cell_setting 'orthorhombic'
loop_
_space_group_symop_operation_xyz
x,y,z
-x,1/2-y,z
x,-y,1/2-z
1/2-x,y,-z
-x,-y,-z
x,1/2+y,-z
-x,y,1/2+z
1/2+x,-y,z
1/2+x,1/2+y,1/2+z
1/2-x,-y,1/2+z
1/2+x,1/2-y,-z
-x,1/2+y,1/2-z
1/2-x,1/2-y,1/2-z
1/2+x,y,1/2-z
1/2-x,1/2+y,z
x,1/2-y,1/2+z
loop_
_atom_site_type_symbol
_atom_site_label
_atom_site_fract_x
_atom_site_fract_y
_atom_site_fract_z
Si Si1 0.352404 0.972533 0.133347
Si Si2 0.838704 0.633968 0.403246
Si Si3 0.132881 0.485352 0.616301
Si Si4 0.180206 0.353165 0.206075
Si Si5 0.086410 0.790688 0.587283
Si Si6 0.250000 0.219151 0.500000
O O1 0.248203 0.001599 0.123178
O O2 0.338989 0.912016 0.163684
O O3 0.399129 0.000000 0.250000
O O4 0.399975 0.982215 0.001992
O O5 0.750000 0.631445 0.500000
O O6 0.882395 0.576267 0.400652
O O7 0.784456 0.646779 0.276456
O O8 0.911016 0.676563 0.460187
O O9 0.097426 0.500000 0.750000
O O10 0.101291 0.331140 0.301582
O O11 0.186739 0.316411 0.088827
O O12 0.183233 0.755933 0.582007
O O13 0.000000 0.750000 0.599260
#
# Coordination Sequence:
#
# PCOD9529618 Si02
#       6
#    16  16  16  16  16   8
#     4  10  16  28  53  92 135 166 214 269 348 444
#     4  10  17  34  58  90 136 173 220 280 337 424
#     4  10  16  25  51  96 144 166 212 265 351 452
#     4  11  21  37  61  98 134 173 231 289 353 433
#     4  11  25  43  64  89 130 193 245 300 357 413
#     4  12  24  40  64  94 130 174 240 304 360 424
#
# _framework density 22.708831
#
# number of rings (size 3 to 8) (size 9 to 14) (size 15 to 20)
#    0.000    1.455    8.182    2.727    0.000    0.727 
#    0.000    0.000    0.000    0.000    0.000   16.545 
#    0.000    0.000    0.000    0.000    0.000    0.000 
#
# Total GULP energy -245877.110999 kJ/mol
# GULP energy per Si atom -5588.116159 kJ/mol
# Density = 2.265714 g / cm^3
# Si number density = 22.708831 Si / 1000 Ang^3
#
#
#
# Elastic Constant Matrix: (Units=GPa)
#
#
# Indices 1 2 3 4 5 6 
#
# 1 72.6347 15.1684 4.0538 0.0000 0.0000 0.0000
# 2 15.1684 158.5574 45.4206 0.0001 0.0000 0.0000
# 3 4.0538 45.4206 156.6382 0.0002 0.0001 0.0000
# 4 0.0000 0.0001 0.0002 60.0769 0.0000 0.0000
# 5 0.0000 0.0000 0.0001 0.0000 -13.6662 0.0000
# 6 0.0000 0.0000 0.0000 0.0000 0.0000 7.9139
#
#
#
# Elastic Compliance Matrix: (Units=1/GPa)
#
#
# Indices 1 2 3 4 5 6 
#
# 1 0.014048 -0.001352 0.000028 0.000000 0.000000 0.000000
# 2 -0.001352 0.007008 -0.001997 0.000000 0.000000 0.000000
# 3 0.000028 -0.001997 0.006963 0.000000 0.000000 0.000000
# 4 0.000000 0.000000 0.000000 0.016645 0.000000 0.000000
# 5 0.000000 0.000000 0.000000 0.000000 -0.073173 0.000000
# 6 0.000000 0.000000 0.000000 0.000000 0.000000 0.126361
#
#
# Mechanical properties :
#
#
# Convention : Reuss Voigt Hill
#
# Bulk Modulus (GPa) = 46.77809 57.45732 52.11770
# Shear Modulus (GPa) = 44.79499 32.41074 38.60287
#
# Velocity S-wave (km/s) = 4.44619 3.78197 4.12746
# Velocity P-wave (km/s) = 6.85580 6.66541 6.76128
#
# Compressibility (1/GPa) = 0.02137753
#
# Stress axis : x y z
#
# Youngs Moduli (GPa) = 71.18303 142.68714 143.62572
#
# Poissons Ratio (x) = 0.19293 -0.00409
# Poissons Ratio (y) = 0.09625 0.28685
# Poissons Ratio (z) = -0.00203 0.28498
#
# Static dielectric constant tensor:
#      x y z
#    x 1.762060 0.000000 0.000000 
#    y 0.000000 1.797540 0.000000 
#    z 0.000000 0.000000 2.126260 
# 
# From -- ./inp_files/10925.got.cif
#   From: 2010.05.17/outbox.cif.g08.bks.cpg/sg73_6_cif.got.tgz:10925.got - 2010.06.03 17:35:07.
