data_PCOD9529132
_publ_section_title
;
Structure prediction by ZEFSAII (Michael W. Deem and Ramdas Pophale) SiO2 
 PCOD9529132
Probable space group: I B A M
;
_chemical_formula_sum "Si O2"
_cell_formula_units_Z 116
_cell_length_a 31.667448
_cell_length_b 7.418177
_cell_length_c 24.891387
_cell_angle_alpha 90.000000
_cell_angle_beta 90.000000
_cell_angle_gamma 90.000000
_cell_volume 5847.353566
_symmetry_space_group_name_H-M "I B A M"
_symmetry_group_IT_number 72
_symmetry_cell_setting 'orthorhombic'
loop_
_space_group_symop_operation_xyz
x,y,z
-x,-y,z
x,-y,1/2-z
-x,y,1/2-z
-x,-y,-z
x,y,-z
-x,y,1/2+z
x,-y,1/2+z
1/2+x,1/2+y,1/2+z
1/2-x,1/2-y,1/2+z
1/2+x,1/2-y,-z
1/2-x,1/2+y,-z
1/2-x,1/2-y,1/2-z
1/2+x,1/2+y,1/2-z
1/2-x,1/2+y,z
1/2+x,1/2-y,z
loop_
_atom_site_type_symbol
_atom_site_label
_atom_site_fract_x
_atom_site_fract_y
_atom_site_fract_z
Si Si1 0.638617 0.236705 0.338308
Si Si2 0.411803 0.797279 0.061515
Si Si3 0.700501 0.214806 0.750629
Si Si4 0.000000 0.500000 0.250000
Si Si5 0.097880 0.719697 0.060014
Si Si6 0.872012 0.699415 0.830419
Si Si7 0.994857 0.786004 0.561649
Si Si8 0.063301 0.801536 0.237607
O O1 0.679638 0.285777 0.304353
O O2 0.633861 0.286984 0.400173
O O3 0.599277 0.321277 0.306939
O O4 0.632943 0.018356 0.334908
O O5 0.383242 0.724904 0.110449
O O6 0.460691 0.790791 0.081489
O O7 0.398959 0.004831 0.055867
O O8 0.410573 0.720242 0.000000
O O9 0.750000 0.250000 0.750000
O O10 0.670148 0.272331 0.800369
O O11 0.695777 0.000000 0.750000
O O12 0.030563 0.644860 0.220942
O O13 0.051224 0.750220 0.085083
O O14 0.099428 0.797148 0.000000
O O15 0.911242 0.734276 0.790412
O O16 0.991519 0.718377 0.500000
O O17 0.000000 0.000000 0.561455
O O18 0.045725 0.000000 0.250000
#
# Coordination Sequence:
#
# PCOD9529132 Si02
#       8
#    16  16  16   4  16  16  16  16
#     4   9  18  36  54  74 110 140 169 227 285 323
#     4   9  17  30  51  74  98 139 185 218 260 319
#     4   9  18  33  56  79 100 133 170 220 288 342
#     4  12  22  40  52  74 118 148 186 240 280 324
#     4   9  17  30  51  74  98 139 185 218 260 319
#     4   9  18  36  54  74 110 140 169 227 285 323
#     4   9  17  28  41  62  97 135 173 217 254 285
#     4  11  22  36  56  77 101 148 193 226 279 334
#
# _framework density 19.838034
#
# number of rings (size 3 to 8) (size 9 to 14) (size 15 to 20)
#    0.000    2.621    1.379    1.448    0.000    6.069 
#    0.000    0.000    0.000    0.828    0.000    0.000 
#    0.000    0.000    0.000    0.000    0.000    0.552 
#
# Total GULP energy -323067.670482 kJ/mol
# GULP energy per Si atom -5570.132250 kJ/mol
# Density = 1.979288 g / cm^3
# Si number density = 19.838034 Si / 1000 Ang^3
#
#
#
# Elastic Constant Matrix: (Units=GPa)
#
#
# Indices 1 2 3 4 5 6 
#
# 1 129.6695 2.8656 72.3126 0.0000 0.0000 0.0000
# 2 2.8656 64.7836 4.3365 0.0000 0.0000 0.0000
# 3 72.3126 4.3365 130.9701 0.0000 0.0000 0.0000
# 4 0.0000 0.0000 0.0000 6.1644 0.0000 0.0000
# 5 0.0000 0.0000 0.0000 0.0000 20.1211 0.0000
# 6 0.0000 0.0000 0.0000 0.0000 0.0000 17.3971
#
#
#
# Elastic Compliance Matrix: (Units=1/GPa)
#
#
# Indices 1 2 3 4 5 6 
#
# 1 0.011143 -0.000081 -0.006150 0.000000 0.000000 0.000000
# 2 -0.000081 0.015471 -0.000467 0.000000 0.000000 0.000000
# 3 -0.006150 -0.000467 0.011046 0.000000 0.000000 0.000000
# 4 0.000000 0.000000 0.000000 0.162221 0.000000 0.000000
# 5 0.000000 0.000000 0.000000 0.000000 0.049699 0.000000
# 6 0.000000 0.000000 0.000000 0.000000 0.000000 0.057481
#
#
# Mechanical properties :
#
#
# Convention : Reuss Voigt Hill
#
# Bulk Modulus (GPa) = 41.21416 53.82807 47.52111
# Shear Modulus (GPa) = 15.21858 25.13043 20.17451
#
# Velocity S-wave (km/s) = 2.77274 3.56305 3.19244
# Velocity P-wave (km/s) = 5.57415 6.64227 6.13151
#
# Compressibility (1/GPa) = 0.02426351
#
# Stress axis : x y z
#
# Youngs Moduli (GPa) = 89.74011 64.63754 90.52783
#
# Poissons Ratio (x) = 0.00525 0.55673
# Poissons Ratio (y) = 0.00729 0.04231
# Poissons Ratio (z) = 0.55189 0.03021
#
# Static dielectric constant tensor:
#      x y z
#    x 1.711030 0.000000 0.000000 
#    y 0.000000 1.748000 0.000000 
#    z 0.000000 0.000000 1.765640 
# 
# From -- ./inp_files/49988.got.cif
#   From: 2010.05.17/outbox.cif.g08.bks.cpg/sg72_25_cif.got.tgz:49988.got - 2010.06.03 17:03:01.
