data_PCOD9529243
_publ_section_title
;
Structure prediction by ZEFSAII (Michael W. Deem and Ramdas Pophale) SiO2 
 PCOD9529243
Probable space group: I B A M
;
_chemical_formula_sum "Si O2"
_cell_formula_units_Z 72
_cell_length_a 9.393084
_cell_length_b 27.379491
_cell_length_c 14.612280
_cell_angle_alpha 90.000000
_cell_angle_beta 90.000000
_cell_angle_gamma 90.000000
_cell_volume 3757.954883
_symmetry_space_group_name_H-M "I B A M"
_symmetry_group_IT_number 72
_symmetry_cell_setting 'orthorhombic'
loop_
_space_group_symop_operation_xyz
x,y,z
-x,-y,z
x,-y,1/2-z
-x,y,1/2-z
-x,-y,-z
x,y,-z
-x,y,1/2+z
x,-y,1/2+z
1/2+x,1/2+y,1/2+z
1/2-x,1/2-y,1/2+z
1/2+x,1/2-y,-z
1/2-x,1/2+y,-z
1/2-x,1/2-y,1/2-z
1/2+x,1/2+y,1/2-z
1/2-x,1/2+y,z
1/2+x,1/2-y,z
loop_
_atom_site_type_symbol
_atom_site_label
_atom_site_fract_x
_atom_site_fract_y
_atom_site_fract_z
Si Si1 0.599608 0.547413 0.890419
Si Si2 0.984165 0.341417 0.603510
Si Si3 0.224193 0.692462 0.244336
Si Si4 0.932393 0.451268 0.351681
Si Si5 0.000000 0.127501 0.250000
O O1 0.500000 0.500000 0.873946
O O2 0.761691 0.542418 0.853758
O O3 0.532033 0.592498 0.835968
O O4 0.606897 0.555211 0.000000
O O5 0.987765 0.323326 0.500000
O O6 0.116062 0.322163 0.663343
O O7 0.847249 0.324169 0.660464
O O8 0.975951 0.400255 0.603319
O O9 0.250000 0.750000 0.250000
O O10 0.366600 0.661970 0.231072
O O11 0.000000 0.500000 0.393646
O O12 0.000000 0.447735 0.250000
#
# Coordination Sequence:
#
# PCOD9529243 Si02
#       5
#    16  16  16  16   8
#     4  11  26  42  63 100 138 172 214 266 324 393
#     4  11  23  44  69  97 130 169 220 270 328 392
#     4  11  25  46  67  95 128 170 219 279 332 389
#     4  11  23  41  68 100 134 179 219 262 325 395
#     4  12  23  42  70  92 132 174 213 266 336 390
#
# _framework density 19.159357
#
# number of rings (size 3 to 8) (size 9 to 14) (size 15 to 20)
#    0.000    0.889    4.444    2.333    9.333    3.556 
#    0.000    2.222    0.000    0.000    0.000    0.000 
#    0.000    0.000    0.000    0.000    0.000    0.000 
#
# Total GULP energy -201206.209885 kJ/mol
# GULP energy per Si atom -5589.061386 kJ/mol
# Density = 1.911575 g / cm^3
# Si number density = 19.159357 Si / 1000 Ang^3
#
#
#
# Elastic Constant Matrix: (Units=GPa)
#
#
# Indices 1 2 3 4 5 6 
#
# 1 173.4648 79.5808 64.5628 0.0000 0.0000 0.0000
# 2 79.5808 170.8975 47.8779 0.0000 0.0000 0.0000
# 3 64.5628 47.8779 141.1646 0.0000 0.0001 0.0000
# 4 0.0000 0.0000 0.0000 -10.6992 0.0000 0.0000
# 5 0.0000 0.0000 0.0001 0.0000 1.1390 0.0000
# 6 0.0000 0.0000 0.0000 0.0000 0.0000 64.4210
#
#
#
# Elastic Compliance Matrix: (Units=1/GPa)
#
#
# Indices 1 2 3 4 5 6 
#
# 1 0.008168 -0.003047 -0.002703 0.000000 0.000000 0.000000
# 2 -0.003047 0.007602 -0.001185 0.000000 0.000000 0.000000
# 3 -0.002703 -0.001185 0.008722 0.000000 -0.000001 0.000000
# 4 0.000000 0.000000 0.000000 -0.093465 0.000001 0.000000
# 5 0.000000 0.000000 -0.000001 0.000001 0.877965 0.000000
# 6 0.000000 0.000000 0.000000 0.000000 0.000000 0.015523
#
#
# Mechanical properties :
#
#
# Convention : Reuss Voigt Hill
#
# Bulk Modulus (GPa) = 94.12571 96.61890 95.37230
# Shear Modulus (GPa) = 5.93877 30.53917 18.23897
#
# Velocity S-wave (km/s) = 1.76250 3.99677 3.08873
# Velocity P-wave (km/s) = 7.30591 8.47570 7.91245
#
# Compressibility (1/GPa) = 0.01062409
#
# Stress axis : x y z
#
# Youngs Moduli (GPa) = 122.42216 131.54207 114.65397
#
# Poissons Ratio (x) = 0.40076 0.30987
# Poissons Ratio (y) = 0.37297 0.13586
# Poissons Ratio (z) = 0.33086 0.15587
#
# Static dielectric constant tensor:
#      x y z
#    x 1.640160 0.000000 0.000000 
#    y 0.000000 1.633610 0.000000 
#    z 0.000000 0.000000 1.699320 
# 
# From -- ./inp_files/18881.got.cif
#   From: 2010.05.17/outbox.cif.g08.bks.cpg/sg72_10_cif.got.tgz:18881.got - 2010.06.03 17:03:01.
