data_PCOD9529147
_publ_section_title
;
Structure prediction by ZEFSAII (Michael W. Deem and Ramdas Pophale) SiO2 
 PCOD9529147
Probable space group: I B A M
;
_chemical_formula_sum "Si O2"
_cell_formula_units_Z 96
_cell_length_a 17.304938
_cell_length_b 12.084456
_cell_length_c 22.409623
_cell_angle_alpha 90.000000
_cell_angle_beta 90.000000
_cell_angle_gamma 90.000000
_cell_volume 4686.317434
_symmetry_space_group_name_H-M "I B A M"
_symmetry_group_IT_number 72
_symmetry_cell_setting 'orthorhombic'
loop_
_space_group_symop_operation_xyz
x,y,z
-x,-y,z
x,-y,1/2-z
-x,y,1/2-z
-x,-y,-z
x,y,-z
-x,y,1/2+z
x,-y,1/2+z
1/2+x,1/2+y,1/2+z
1/2-x,1/2-y,1/2+z
1/2+x,1/2-y,-z
1/2-x,1/2+y,-z
1/2-x,1/2-y,1/2-z
1/2+x,1/2+y,1/2-z
1/2-x,1/2+y,z
1/2+x,1/2-y,z
loop_
_atom_site_type_symbol
_atom_site_label
_atom_site_fract_x
_atom_site_fract_y
_atom_site_fract_z
Si Si1 0.055060 0.775163 0.853870
Si Si2 0.911094 0.471163 0.179495
Si Si3 0.221422 0.374435 0.125953
Si Si4 0.120860 0.185867 0.136190
Si Si5 0.869042 0.956634 0.431749
Si Si6 0.840386 0.873855 0.266361
O O1 0.095345 0.658370 0.837922
O O2 0.086900 0.846213 0.909380
O O3 0.077872 0.852593 0.798157
O O4 0.963993 0.761914 0.860468
O O5 0.902144 0.500000 0.250000
O O6 0.846262 0.542670 0.146378
O O7 0.000000 0.500000 0.164187
O O8 0.180415 0.264275 0.101711
O O9 0.279043 0.430409 0.079342
O O10 0.276458 0.347797 0.183405
O O11 0.155062 0.185494 0.203150
O O12 0.113062 0.063375 0.109234
O O13 0.887205 0.980761 0.500000
O O14 0.827672 0.000000 0.250000
#
# Coordination Sequence:
#
# PCOD9529147 Si02
#       6
#    16  16  16  16  16  16
#     4  11  24  42  69  99 136 178 219 281 343 404
#     4  11  23  41  65 105 144 176 211 264 338 421
#     4  11  24  42  66  95 137 176 220 272 342 412
#     4  12  23  42  67  99 134 172 225 281 338 412
#     4  11  28  47  68  96 129 181 238 293 337 388
#     4  11  22  37  62 101 137 170 211 267 338 416
#
# _framework density 20.485168999999999
#
# number of rings (size 3 to 8) (size 9 to 14) (size 15 to 20)
#    0.000    0.833    5.000    3.000    7.000    2.667 
#    0.000    0.000    0.000    1.000    0.000    0.000 
#    0.000    0.000    0.000    0.000    0.000    0.000 
#
# Total GULP energy -267987.053930 kJ/mol
# GULP energy per Si atom -5583.063624 kJ/mol
# Density = 2.043854 g / cm^3
# Si number density = 20.485169 Si / 1000 Ang^3
#
#
#
# Elastic Constant Matrix: (Units=GPa)
#
#
# Indices 1 2 3 4 5 6 
#
# 1 72.1479 27.1024 -4.9296 0.0000 0.0000 0.0000
# 2 27.1024 81.9468 15.7209 0.0000 0.0000 0.0000
# 3 -4.9296 15.7209 66.2627 0.0000 0.0000 0.0000
# 4 0.0000 0.0000 0.0000 9.1928 0.0000 0.0000
# 5 0.0000 0.0000 0.0000 0.0000 1312.0855 0.0000
# 6 0.0000 0.0000 0.0000 0.0000 0.0000 39.1591
#
#
#
# Elastic Compliance Matrix: (Units=1/GPa)
#
#
# Indices 1 2 3 4 5 6 
#
# 1 0.016244 -0.005871 0.002601 0.000000 0.000000 0.000000
# 2 -0.005871 0.014907 -0.003974 0.000000 0.000000 0.000000
# 3 0.002601 -0.003974 0.016228 0.000000 0.000000 0.000000
# 4 0.000000 0.000000 0.000000 0.108781 0.000000 0.000000
# 5 0.000000 0.000000 0.000000 0.000000 0.000762 0.000000
# 6 0.000000 0.000000 0.000000 0.000000 0.000000 0.025537
#
#
# Mechanical properties :
#
#
# Convention : Reuss Voigt Hill
#
# Bulk Modulus (GPa) = 30.40283 32.90497 31.65390
# Shear Modulus (GPa) = 24.04892 284.25173 154.15033
#
# Velocity S-wave (km/s) = 3.43004 11.79241 8.68407
# Velocity P-wave (km/s) = 5.52815 14.19551 10.77202
#
# Compressibility (1/GPa) = 0.03289168
#
# Stress axis : x y z
#
# Youngs Moduli (GPa) = 61.56206 67.08166 61.62299
#
# Poissons Ratio (x) = 0.39386 -0.16031
# Poissons Ratio (y) = 0.36146 0.24486
# Poissons Ratio (z) = -0.16015 0.26655
#
# Static dielectric constant tensor:
#      x y z
#    x 1.740040 0.000000 0.000000 
#    y 0.000000 1.773620 0.000000 
#    z 0.000000 0.000000 1.761480 
# 
# From -- ./inp_files/44826.got.cif
#   From: 2010.05.17/outbox.cif.g08.bks.cpg/sg72_23_cif.got.tgz:44826.got - 2010.06.03 17:03:01.
