data_PCOD9529676
_publ_section_title
;
Structure prediction by ZEFSAII (Michael W. Deem and Ramdas Pophale) SiO2 
 PCOD9529676
Probable space group: I B C A 
;
_chemical_formula_sum "Si O2"
_cell_formula_units_Z 88
_cell_length_a 27.262239
_cell_length_b 5.499739
_cell_length_c 24.849696
_cell_angle_alpha 90.000000
_cell_angle_beta 90.000000
_cell_angle_gamma 90.000000
_cell_volume 3725.844116
_symmetry_space_group_name_H-M "I B C A "
_symmetry_group_IT_number 73
_symmetry_cell_setting 'orthorhombic'
loop_
_space_group_symop_operation_xyz
x,y,z
-x,1/2-y,z
x,-y,1/2-z
1/2-x,y,-z
-x,-y,-z
x,1/2+y,-z
-x,y,1/2+z
1/2+x,-y,z
1/2+x,1/2+y,1/2+z
1/2-x,-y,1/2+z
1/2+x,1/2-y,-z
-x,1/2+y,1/2-z
1/2-x,1/2-y,1/2-z
1/2+x,y,1/2-z
1/2-x,1/2+y,z
x,1/2-y,1/2+z
loop_
_atom_site_type_symbol
_atom_site_label
_atom_site_fract_x
_atom_site_fract_y
_atom_site_fract_z
Si Si1 0.059417 0.713239 0.472532
Si Si2 0.611452 0.500000 0.250000
Si Si3 0.193661 0.044200 0.020444
Si Si4 0.371713 0.930245 0.806978
Si Si5 0.719836 0.855018 0.142067
Si Si6 0.941709 0.245310 0.148440
O O1 0.075267 0.482528 0.508379
O O2 0.072996 0.651884 0.410698
O O3 0.000000 0.750000 0.474120
O O4 0.644908 0.335280 0.210267
O O5 0.576936 0.399248 0.298871
O O6 0.197214 0.119739 0.082282
O O7 0.250000 0.015026 0.000000
O O8 0.172461 0.775072 0.011504
O O9 0.325925 0.099099 0.819104
O O10 0.395437 0.000000 0.750000
O O11 0.414746 0.990141 0.848210
O O12 0.754783 0.093103 0.147760
O O13 0.000000 0.250000 0.150541
#
# Coordination Sequence:
#
# PCOD9529676 Si02
#       6
#    16   8  16  16  16  16
#     4   9  19  37  63  95 134 177 221 273 338 417
#     4  10  24  44  68  96 142 172 232 302 350 410
#     4  10  16  34  58  93 127 164 213 284 334 396
#     4  10  26  46  62  98 137 174 228 298 345 416
#     4  12  24  40  71  95 128 183 228 273 349 415
#     4  10  23  42  72 100 135 184 230 287 359 420
#
# _framework density 23.618808000000001
#
# number of rings (size 3 to 8) (size 9 to 14) (size 15 to 20)
#    0.000    1.818    3.636    0.000   11.455    0.727 
#    0.000    1.818    0.000    0.000    0.000    0.000 
#    0.000    0.000    0.000    0.000    0.000    0.000 
#
# Total GULP energy -244946.393167 kJ/mol
# GULP energy per Si atom -5566.963481 kJ/mol
# Density = 2.356505 g / cm^3
# Si number density = 23.618808 Si / 1000 Ang^3
#
#
#
# Elastic Constant Matrix: (Units=GPa)
#
#
# Indices 1 2 3 4 5 6 
#
# 1 60.4064 26.0530 9.8195 0.0000 0.0000 0.0000
# 2 26.0530 117.4303 26.7201 0.0000 0.0000 0.0000
# 3 9.8195 26.7201 113.3213 0.0000 0.0000 0.0000
# 4 0.0000 0.0000 0.0000 49.6732 0.0000 0.0000
# 5 0.0000 0.0000 0.0000 0.0000 33.7604 0.0000
# 6 0.0000 0.0000 0.0000 0.0000 0.0000 18.1619
#
#
#
# Elastic Compliance Matrix: (Units=1/GPa)
#
#
# Indices 1 2 3 4 5 6 
#
# 1 0.018354 -0.003920 -0.000666 0.000000 0.000000 0.000000
# 2 -0.003920 0.009836 -0.001979 0.000000 0.000000 0.000000
# 3 -0.000666 -0.001979 0.009349 0.000000 0.000000 0.000000
# 4 0.000000 0.000000 0.000000 0.020132 0.000000 0.000000
# 5 0.000000 0.000000 0.000000 0.000000 0.029621 0.000000
# 6 0.000000 0.000000 0.000000 0.000000 0.000000 0.055060
#
#
# Mechanical properties :
#
#
# Convention : Reuss Voigt Hill
#
# Bulk Modulus (GPa) = 40.97235 46.26036 43.61636
# Shear Modulus (GPa) = 30.55896 35.55678 33.05787
#
# Velocity S-wave (km/s) = 3.60090 3.88421 3.74524
# Velocity P-wave (km/s) = 5.88843 6.30436 6.09994
#
# Compressibility (1/GPa) = 0.02440670
#
# Stress axis : x y z
#
# Youngs Moduli (GPa) = 54.48505 101.66860 106.96416
#
# Poissons Ratio (x) = 0.39858 0.07124
# Poissons Ratio (y) = 0.21360 0.21174
# Poissons Ratio (z) = 0.03629 0.20125
#
# Static dielectric constant tensor:
#      x y z
#    x 1.919020 0.000000 0.000000 
#    y 0.000000 2.862290 0.000000 
#    z 0.000000 0.000000 1.909950 
# 
# From -- ./inp_files/2248.got.cif
#   From: 2010.05.17/outbox.cif.g08.bks.cpg/sg73_2_cif.got.tgz:2248.got - 2010.06.03 17:35:07.
