data_PCOD9529808
_publ_section_title
;
Structure prediction by ZEFSAII (Michael W. Deem and Ramdas Pophale) SiO2 
 PCOD9529808
Probable space group: I B C A 
;
_chemical_formula_sum "Si O2"
_cell_formula_units_Z 88
_cell_length_a 9.890782
_cell_length_b 26.788110
_cell_length_c 16.033083
_cell_angle_alpha 90.000000
_cell_angle_beta 90.000000
_cell_angle_gamma 90.000000
_cell_volume 4248.051217
_symmetry_space_group_name_H-M "I B C A "
_symmetry_group_IT_number 73
_symmetry_cell_setting 'orthorhombic'
loop_
_space_group_symop_operation_xyz
x,y,z
-x,1/2-y,z
x,-y,1/2-z
1/2-x,y,-z
-x,-y,-z
x,1/2+y,-z
-x,y,1/2+z
1/2+x,-y,z
1/2+x,1/2+y,1/2+z
1/2-x,-y,1/2+z
1/2+x,1/2-y,-z
-x,1/2+y,1/2-z
1/2-x,1/2-y,1/2-z
1/2+x,y,1/2-z
1/2-x,1/2+y,z
x,1/2-y,1/2+z
loop_
_atom_site_type_symbol
_atom_site_label
_atom_site_fract_x
_atom_site_fract_y
_atom_site_fract_z
Si Si1 0.677040 0.830669 0.418315
Si Si2 0.067547 0.517555 0.348344
Si Si3 0.908578 0.607961 0.287683
Si Si4 0.500000 0.750000 0.344860
Si Si5 0.151472 0.441833 0.883365
Si Si6 0.331628 0.827246 0.256524
O O1 0.750000 0.811903 0.500000
O O2 0.550969 0.795792 0.399563
O O3 0.643439 0.889064 0.429472
O O4 0.772023 0.826412 0.336853
O O5 0.085689 0.500000 0.250000
O O6 0.209204 0.528423 0.392825
O O7 0.979271 0.568624 0.348675
O O8 0.979716 0.475419 0.393019
O O9 0.845310 0.574155 0.214534
O O10 0.786985 0.645795 0.310426
O O11 0.032406 0.639431 0.248535
O O12 0.381056 0.773778 0.289105
#
# Coordination Sequence:
#
# PCOD9529808 Si02
#       6
#    16  16  16   8  16  16
#     4  11  25  44  62  92 135 169 206 269 337 385
#     4  10  18  30  56  92 124 157 209 259 308 364
#     4  10  18  33  58  92 126 158 206 269 314 359
#     4  12  24  44  68  94 120 166 228 270 314 390
#     4  10  20  34  56  87 124 165 202 260 310 378
#     4  11  21  39  66  93 122 165 216 269 319 376
#
# _framework density 20.715382000000002
#
# number of rings (size 3 to 8) (size 9 to 14) (size 15 to 20)
#    0.000    1.455    7.273    2.182    2.545    0.727 
#    0.000    0.909    0.000    0.000    0.000    0.000 
#    0.000    0.000    0.000    0.000    0.000    0.000 
#
# Total GULP energy -245533.157829 kJ/mol
# GULP energy per Si atom -5580.299042 kJ/mol
# Density = 2.066823 g / cm^3
# Si number density = 20.715382 Si / 1000 Ang^3
#
#
#
# Elastic Constant Matrix: (Units=GPa)
#
#
# Indices 1 2 3 4 5 6 
#
# 1 135.1115 67.1964 8.8417 0.0000 0.0000 0.0000
# 2 67.1964 113.7171 15.8472 0.0000 0.0000 0.0000
# 3 8.8417 15.8472 31.3914 0.0000 0.0000 0.0000
# 4 0.0000 0.0000 0.0000 3.8745 0.0000 0.0000
# 5 0.0000 0.0000 0.0000 0.0000 16.8309 0.0000
# 6 0.0000 0.0000 0.0000 0.0000 0.0000 58.6972
#
#
#
# Elastic Compliance Matrix: (Units=1/GPa)
#
#
# Indices 1 2 3 4 5 6 
#
# 1 0.010483 -0.006220 0.000188 0.000000 0.000000 0.000000
# 2 -0.006220 0.013150 -0.004887 0.000000 0.000000 0.000000
# 3 0.000188 -0.004887 0.034270 0.000000 0.000000 0.000000
# 4 0.000000 0.000000 0.000000 0.258100 0.000000 0.000000
# 5 0.000000 0.000000 0.000000 0.000000 0.059414 0.000000
# 6 0.000000 0.000000 0.000000 0.000000 0.000000 0.017037
#
#
# Mechanical properties :
#
#
# Convention : Reuss Voigt Hill
#
# Bulk Modulus (GPa) = 27.72831 51.55451 39.64141
# Shear Modulus (GPa) = 11.72845 28.43616 20.08230
#
# Velocity S-wave (km/s) = 2.38202 3.70903 3.11696
# Velocity P-wave (km/s) = 4.58037 6.57903 5.66848
#
# Compressibility (1/GPa) = 0.03606423
#
# Stress axis : x y z
#
# Youngs Moduli (GPa) = 95.39521 76.04295 29.18014
#
# Poissons Ratio (x) = 0.47302 -0.00548
# Poissons Ratio (y) = 0.59340 0.14259
# Poissons Ratio (z) = -0.01790 0.37159
#
# Static dielectric constant tensor:
#      x y z
#    x 1.779930 0.000000 0.000000 
#    y 0.000000 1.793470 0.000000 
#    z 0.000000 0.000000 1.730420 
# 
# From -- ./inp_files/20824.got.cif
#   From: 2010.05.17/outbox.cif.g08.bks.cpg/sg73_11_cif.got.tgz:20824.got - 2010.06.03 17:35:07.
