data_PCOD9529242
_publ_section_title
;
Structure prediction by ZEFSAII (Michael W. Deem and Ramdas Pophale) SiO2 
 PCOD9529242
Probable space group: I B A M
;
_chemical_formula_sum "Si O2"
_cell_formula_units_Z 104
_cell_length_a 25.061290
_cell_length_b 7.877925
_cell_length_c 22.614593
_cell_angle_alpha 90.000000
_cell_angle_beta 90.000000
_cell_angle_gamma 90.000000
_cell_volume 4464.820874
_symmetry_space_group_name_H-M "I B A M"
_symmetry_group_IT_number 72
_symmetry_cell_setting 'orthorhombic'
loop_
_space_group_symop_operation_xyz
x,y,z
-x,-y,z
x,-y,1/2-z
-x,y,1/2-z
-x,-y,-z
x,y,-z
-x,y,1/2+z
x,-y,1/2+z
1/2+x,1/2+y,1/2+z
1/2-x,1/2-y,1/2+z
1/2+x,1/2-y,-z
1/2-x,1/2+y,-z
1/2-x,1/2-y,1/2-z
1/2+x,1/2+y,1/2-z
1/2-x,1/2+y,z
1/2+x,1/2-y,z
loop_
_atom_site_type_symbol
_atom_site_label
_atom_site_fract_x
_atom_site_fract_y
_atom_site_fract_z
Si Si1 0.170046 0.281607 0.932608
Si Si2 0.419500 0.203569 0.757778
Si Si3 0.437878 0.683076 0.869740
Si Si4 0.367052 0.259525 0.000000
Si Si5 0.786795 0.341129 0.089639
Si Si6 0.447535 0.282860 0.892954
Si Si7 0.305669 0.188523 0.773651
O O1 0.119000 0.257859 0.890425
O O2 0.190855 0.475686 0.930332
O O3 0.223168 0.176064 0.916565
O O4 0.153704 0.240210 0.000000
O O5 0.447137 0.289493 0.700871
O O6 0.434137 0.225735 0.826270
O O7 0.359266 0.277047 0.752770
O O8 0.423206 0.000000 0.750000
O O9 0.439054 0.486564 0.888450
O O10 0.489966 0.760028 0.901525
O O11 0.319919 0.288671 0.050310
O O12 0.410812 0.223208 0.053296
O O13 0.802325 0.312141 0.156601
O O14 0.250000 0.250000 0.750000
O O15 0.311555 0.000000 0.750000
#
# Coordination Sequence:
#
# PCOD9529242 Si02
#       7
#    16  16  16   8  16  16  16
#     4  12  26  44  71 103 145 189 240 296 360 437
#     4  11  23  45  73 105 143 188 240 305 369 431
#     4  11  27  46  72 108 142 189 252 299 362 437
#     4  12  26  47  73 102 142 193 245 289 364 436
#     4  12  25  47  69 104 143 187 236 297 364 435
#     4  11  27  48  75 100 148 196 242 302 366 434
#     4  11  23  41  66  99 138 175 228 289 357 422
#
# _framework density 23.293206999999999
#
# number of rings (size 3 to 8) (size 9 to 14) (size 15 to 20)
#    0.000    0.615    3.077    4.615    4.308    5.538 
#    0.000    0.769    0.000    0.000    0.000    0.000 
#    0.000    0.000    0.000    0.000    0.000    0.000 
#
# Total GULP energy -289688.270140 kJ/mol
# GULP energy per Si atom -5570.928272 kJ/mol
# Density = 2.324019 g / cm^3
# Si number density = 23.293207 Si / 1000 Ang^3
#
#
#
# Elastic Constant Matrix: (Units=GPa)
#
#
# Indices 1 2 3 4 5 6 
#
# 1 153.3406 5.2251 29.9580 0.0000 0.0000 0.0000
# 2 5.2251 23.2125 -9.9014 0.0000 0.0000 0.0000
# 3 29.9580 -9.9014 145.9529 0.0000 0.0000 0.0000
# 4 0.0000 0.0000 0.0000 7.3876 0.0000 0.0000
# 5 0.0000 0.0000 0.0000 0.0000 49.5318 0.0000
# 6 0.0000 0.0000 0.0000 0.0000 0.0000 25.2342
#
#
#
# Elastic Compliance Matrix: (Units=1/GPa)
#
#
# Indices 1 2 3 4 5 6 
#
# 1 0.006903 -0.002223 -0.001568 0.000000 0.000000 0.000000
# 2 -0.002223 0.045080 0.003514 0.000000 0.000000 0.000000
# 3 -0.001568 0.003514 0.007412 0.000000 0.000000 0.000000
# 4 0.000000 0.000000 0.000000 0.135361 0.000000 0.000000
# 5 0.000000 0.000000 0.000000 0.000000 0.020189 0.000000
# 6 0.000000 0.000000 0.000000 0.000000 0.000000 0.039629
#
#
# Mechanical properties :
#
#
# Convention : Reuss Voigt Hill
#
# Bulk Modulus (GPa) = 16.99445 41.45213 29.22329
# Shear Modulus (GPa) = 18.19902 36.24571 27.22236
#
# Velocity S-wave (km/s) = 2.79821 3.94898 3.42231
# Velocity P-wave (km/s) = 4.21328 6.21506 5.30936
#
# Compressibility (1/GPa) = 0.05884274
#
# Stress axis : x y z
#
# Youngs Moduli (GPa) = 144.85486 22.18297 134.92109
#
# Poissons Ratio (x) = 0.04931 0.21153
# Poissons Ratio (y) = 0.32197 -0.47417
# Poissons Ratio (z) = 0.22710 -0.07796
#
# Static dielectric constant tensor:
#      x y z
#    x 1.324960 0.000000 0.000000 
#    y 0.000000 1.927910 0.000000 
#    z 0.000000 0.000000 0.921610 
# 
# From -- ./inp_files/40800.got.cif
#   From: 2010.05.17/outbox.cif.g08.bks.cpg/sg72_21_cif.got.tgz:40800.got - 2010.06.03 17:03:01.
