data_PCOD9529362
_publ_section_title
;
Structure prediction by ZEFSAII (Michael W. Deem and Ramdas Pophale) SiO2 
 PCOD9529362
Probable space group: I B A M
;
_chemical_formula_sum "Si O2"
_cell_formula_units_Z 36
_cell_length_a 8.390572
_cell_length_b 12.539624
_cell_length_c 14.797376
_cell_angle_alpha 90.000000
_cell_angle_beta 90.000000
_cell_angle_gamma 90.000000
_cell_volume 1556.900264
_symmetry_space_group_name_H-M "I B A M"
_symmetry_group_IT_number 72
_symmetry_cell_setting 'orthorhombic'
loop_
_space_group_symop_operation_xyz
x,y,z
-x,-y,z
x,-y,1/2-z
-x,y,1/2-z
-x,-y,-z
x,y,-z
-x,y,1/2+z
x,-y,1/2+z
1/2+x,1/2+y,1/2+z
1/2-x,1/2-y,1/2+z
1/2+x,1/2-y,-z
1/2-x,1/2+y,-z
1/2-x,1/2-y,1/2-z
1/2+x,1/2+y,1/2-z
1/2-x,1/2+y,z
1/2+x,1/2-y,z
loop_
_atom_site_type_symbol
_atom_site_label
_atom_site_fract_x
_atom_site_fract_y
_atom_site_fract_z
Si Si1 0.084450 0.832706 0.844838
Si Si2 0.000000 0.000000 0.000000
Si Si3 0.065120 0.615725 0.607740
O O1 0.271284 0.858317 0.842023
O O2 0.000000 0.851540 0.750000
O O3 0.058312 0.709592 0.872518
O O4 0.008536 0.907306 0.921171
O O5 0.102000 0.612839 0.500000
O O6 0.000000 0.500000 0.632461
#
# Coordination Sequence:
#
# PCOD9529362 Si02
#       3
#    16   4  16
#     4  12  27  49  79 112 156 204 261 316 385 459
#     4  12  26  48  80 102 158 206 254 314 390 442
#     4  11  25  48  81 116 156 202 256 316 389 460
#
# _framework density 23.122869000000001
#
# number of rings (size 3 to 8) (size 9 to 14) (size 15 to 20)
#    0.000    0.444    4.444    2.000    6.222    0.889 
#    8.000    0.000    0.000    0.000    0.000    0.000 
#    0.000    0.000    0.000    0.000    0.000    0.000 
#
# Total GULP energy -100464.920373 kJ/mol
# GULP energy per Si atom -5581.384465 kJ/mol
# Density = 2.307024 g / cm^3
# Si number density = 23.122869 Si / 1000 Ang^3
#
#
#
# Elastic Constant Matrix: (Units=GPa)
#
#
# Indices 1 2 3 4 5 6 
#
# 1 136.8668 86.9380 39.2103 0.0000 0.0000 0.0000
# 2 86.9380 264.0439 68.7421 0.0000 0.0000 0.0000
# 3 39.2103 68.7421 99.7648 0.0000 0.0000 0.0000
# 4 0.0000 0.0000 0.0000 18.4579 0.0000 0.0000
# 5 0.0000 0.0000 0.0000 0.0000 3.2683 0.0000
# 6 0.0000 0.0000 0.0000 0.0000 0.0000 -6.3911
#
#
#
# Elastic Compliance Matrix: (Units=1/GPa)
#
#
# Indices 1 2 3 4 5 6 
#
# 1 0.009534 -0.002637 -0.001930 0.000000 0.000000 0.000000
# 2 -0.002637 0.005344 -0.002646 0.000000 0.000000 0.000000
# 3 -0.001930 -0.002646 0.012606 0.000000 0.000000 0.000000
# 4 0.000000 0.000000 0.000000 0.054177 0.000000 0.000000
# 5 0.000000 0.000000 0.000000 0.000000 0.305970 0.000000
# 6 0.000000 0.000000 0.000000 0.000000 0.000000 -0.156467
#
#
# Mechanical properties :
#
#
# Convention : Reuss Voigt Hill
#
# Bulk Modulus (GPa) = 76.58368 98.93957 87.76163
# Shear Modulus (GPa) = 20.00455 23.45268 21.72862
#
# Velocity S-wave (km/s) = 2.94452 3.18821 3.06878
# Velocity P-wave (km/s) = 6.68973 7.51228 7.11291
#
# Compressibility (1/GPa) = 0.01305761
#
# Stress axis : x y z
#
# Youngs Moduli (GPa) = 104.88553 187.11587 79.32963
#
# Poissons Ratio (x) = 0.49335 0.15314
# Poissons Ratio (y) = 0.27654 0.20992
# Poissons Ratio (z) = 0.20248 0.49514
#
# Static dielectric constant tensor:
#      x y z
#    x 1.886880 0.000000 0.000000 
#    y 0.000000 1.816850 0.000000 
#    z 0.000000 0.000000 1.849390 
# 
# From -- ./inp_files/17816.got.cif
#   From: 2010.05.17/outbox.cif.g08.bks.cpg/sg72_9_cif.got.tgz:17816.got - 2010.06.03 17:03:01.
