data_PCOD9529366
_publ_section_title
;
Structure prediction by ZEFSAII (Michael W. Deem and Ramdas Pophale) SiO2 
 PCOD9529366
Probable space group: I B A M
;
_chemical_formula_sum "Si O2"
_cell_formula_units_Z 36
_cell_length_a 8.810827
_cell_length_b 7.521002
_cell_length_c 20.620491
_cell_angle_alpha 90.000000
_cell_angle_beta 90.000000
_cell_angle_gamma 90.000000
_cell_volume 1366.442560
_symmetry_space_group_name_H-M "I B A M"
_symmetry_group_IT_number 72
_symmetry_cell_setting 'orthorhombic'
loop_
_space_group_symop_operation_xyz
x,y,z
-x,-y,z
x,-y,1/2-z
-x,y,1/2-z
-x,-y,-z
x,y,-z
-x,y,1/2+z
x,-y,1/2+z
1/2+x,1/2+y,1/2+z
1/2-x,1/2-y,1/2+z
1/2+x,1/2-y,-z
1/2-x,1/2+y,-z
1/2-x,1/2-y,1/2-z
1/2+x,1/2+y,1/2-z
1/2-x,1/2+y,z
1/2+x,1/2-y,z
loop_
_atom_site_type_symbol
_atom_site_label
_atom_site_fract_x
_atom_site_fract_y
_atom_site_fract_z
Si Si1 0.369580 0.851375 0.928316
Si Si2 0.000000 0.500000 0.750000
Si Si3 0.418938 0.331444 0.158060
O O1 0.471770 0.692028 0.904055
O O2 0.245488 0.869500 0.871893
O O3 0.500000 0.000000 0.931049
O O4 0.302194 0.829787 0.000000
O O5 0.080234 0.350240 0.702401
O O6 0.500000 0.500000 0.189511
#
# Coordination Sequence:
#
# PCOD9529366 Si02
#       3
#    16   4  16
#     4  11  25  51  83 123 166 210 276 345 416 487
#     4  12  30  56  78 120 172 216 292 326 400 510
#     4  12  27  51  81 120 163 222 275 340 411 485
#
# _framework density 26.345786
#
# number of rings (size 3 to 8) (size 9 to 14) (size 15 to 20)
#    0.000    0.444    2.222    4.667    0.000    8.889 
#    0.000    0.000    0.000    2.667    0.000    0.000 
#    0.000    0.000    0.000    0.000    0.000    0.000 
#
# Total GULP energy -100352.965645 kJ/mol
# GULP energy per Si atom -5575.164758 kJ/mol
# Density = 2.628582 g / cm^3
# Si number density = 26.345786 Si / 1000 Ang^3
#
#
#
# Elastic Constant Matrix: (Units=GPa)
#
#
# Indices 1 2 3 4 5 6 
#
# 1 167.5575 68.6200 68.6260 0.0000 0.0000 0.0000
# 2 68.6200 210.3475 89.3142 0.0000 0.0000 0.0000
# 3 68.6260 89.3142 202.9963 0.0000 0.0000 0.0000
# 4 0.0000 0.0000 0.0000 -42.3196 0.0000 0.0000
# 5 0.0000 0.0000 0.0000 0.0000-1566.4980 0.0000
# 6 0.0000 0.0000 0.0000 0.0000 0.0000 39.2589
#
#
#
# Elastic Compliance Matrix: (Units=1/GPa)
#
#
# Indices 1 2 3 4 5 6 
#
# 1 0.007368 -0.001655 -0.001763 0.000000 0.000000 0.000000
# 2 -0.001655 0.006218 -0.002176 0.000000 0.000000 0.000000
# 3 -0.001763 -0.002176 0.006480 0.000000 0.000000 0.000000
# 4 0.000000 0.000000 0.000000 -0.023630 0.000000 0.000000
# 5 0.000000 0.000000 0.000000 0.000000 -0.000638 0.000000
# 6 0.000000 0.000000 0.000000 0.000000 0.000000 0.025472
#
#
# Mechanical properties :
#
#
# Convention : Reuss Voigt Hill
#
# Bulk Modulus (GPa) = 112.64477 114.89129 113.76803
# Shear Modulus (GPa) = 141.17753 -290.28899 -74.55573
#
# Velocity S-wave (km/s) = 7.32821 -10.50825 -5.32544
# Velocity P-wave (km/s) = 10.69826 10.17485 2.33721
#
# Compressibility (1/GPa) = 0.00887746
#
# Stress axis : x y z
#
# Youngs Moduli (GPa) = 135.72522 160.82267 154.33127
#
# Poissons Ratio (x) = 0.26619 0.27202
# Poissons Ratio (y) = 0.22465 0.33586
# Poissons Ratio (z) = 0.23923 0.34999
#
# Static dielectric constant tensor:
#      x y z
#    x 1.841370 0.000000 0.000000 
#    y 0.000000 3.415450 0.000000 
#    z 0.000000 0.000000 2.107350 
# 
# From -- ./inp_files/35007.got.cif
#   From: 2010.05.17/outbox.cif.g08.bks.cpg/sg72_18_cif.got.tgz:35007.got - 2010.06.03 17:03:01.
