data_PCOD9529257
_publ_section_title
;
Structure prediction by ZEFSAII (Michael W. Deem and Ramdas Pophale) SiO2 
 PCOD9529257
Probable space group: I B A M
;
_chemical_formula_sum "Si O2"
_cell_formula_units_Z 64
_cell_length_a 21.065580
_cell_length_b 9.015404
_cell_length_c 14.342201
_cell_angle_alpha 90.000000
_cell_angle_beta 90.000000
_cell_angle_gamma 90.000000
_cell_volume 2723.795004
_symmetry_space_group_name_H-M "I B A M"
_symmetry_group_IT_number 72
_symmetry_cell_setting 'orthorhombic'
loop_
_space_group_symop_operation_xyz
x,y,z
-x,-y,z
x,-y,1/2-z
-x,y,1/2-z
-x,-y,-z
x,y,-z
-x,y,1/2+z
x,-y,1/2+z
1/2+x,1/2+y,1/2+z
1/2-x,1/2-y,1/2+z
1/2+x,1/2-y,-z
1/2-x,1/2+y,-z
1/2-x,1/2-y,1/2-z
1/2+x,1/2+y,1/2-z
1/2-x,1/2+y,z
1/2+x,1/2-y,z
loop_
_atom_site_type_symbol
_atom_site_label
_atom_site_fract_x
_atom_site_fract_y
_atom_site_fract_z
Si Si1 0.016812 0.327016 0.894377
Si Si2 0.161687 0.956997 0.000000
Si Si3 0.723488 0.770013 0.500000
Si Si4 0.844780 0.653658 0.806221
Si Si5 0.403672 0.372246 0.182729
O O1 0.958796 0.240159 0.847923
O O2 0.000000 0.500000 0.898420
O O3 0.082567 0.325002 0.839956
O O4 0.025958 0.271141 0.000000
O O5 0.202709 0.807263 0.000000
O O6 0.119734 0.955958 0.908847
O O7 0.208071 0.096626 0.000000
O O8 0.694783 0.833687 0.402295
O O9 0.835080 0.500000 0.750000
O O10 0.843519 0.787678 0.730923
O O11 0.427591 0.500000 0.250000
#
# Coordination Sequence:
#
# PCOD9529257 Si02
#       5
#    16   8   8  16  16
#     4  11  23  42  74 111 154 197 243 298 369 448
#     4  12  30  53  76 109 147 198 261 318 376 439
#     4  12  30  53  76 107 149 199 260 319 372 440
#     4  12  26  46  75 113 154 198 247 304 378 452
#     4  12  26  48  75 114 156 194 244 312 380 446
#
# _framework density 23.496628999999999
#
# number of rings (size 3 to 8) (size 9 to 14) (size 15 to 20)
#    0.000    0.250    7.500    0.750    3.500    4.000 
#    0.000    2.500    0.000    0.000    0.000    0.000 
#    0.000    0.000    0.000    0.000    0.000    0.000 
#
# Total GULP energy -179206.072107 kJ/mol
# GULP energy per Si atom -5600.189753 kJ/mol
# Density = 2.344315 g / cm^3
# Si number density = 23.496629 Si / 1000 Ang^3
#
#
#
# Elastic Constant Matrix: (Units=GPa)
#
#
# Indices 1 2 3 4 5 6 
#
# 1 28.3942 -7.4787 10.8650 0.0000 0.0000 0.0000
# 2 -7.4787 109.4101 31.7390 0.0000 0.0000 0.0000
# 3 10.8650 31.7390 167.8350 0.0000 0.0000 0.0000
# 4 0.0000 0.0000 0.0000 28.2056 0.0000 0.0000
# 5 0.0000 0.0000 0.0000 0.0000 28.0677 0.0000
# 6 0.0000 0.0000 0.0000 0.0000 0.0000 28.6154
#
#
#
# Elastic Compliance Matrix: (Units=1/GPa)
#
#
# Indices 1 2 3 4 5 6 
#
# 1 0.037297 0.003438 -0.003065 0.000000 0.000000 0.000000
# 2 0.003438 0.009987 -0.002111 0.000000 0.000000 0.000000
# 3 -0.003065 -0.002111 0.006556 0.000000 0.000000 0.000000
# 4 0.000000 0.000000 0.000000 0.035454 0.000000 0.000000
# 5 0.000000 0.000000 0.000000 0.000000 0.035628 0.000000
# 6 0.000000 0.000000 0.000000 0.000000 0.000000 0.034946
#
#
# Mechanical properties :
#
#
# Convention : Reuss Voigt Hill
#
# Bulk Modulus (GPa) = 19.85505 41.76556 30.81030
# Shear Modulus (GPa) = 27.75746 35.01201 31.38473
#
# Velocity S-wave (km/s) = 3.44079 3.86435 3.65870
# Velocity P-wave (km/s) = 4.92482 6.14204 5.56680
#
# Compressibility (1/GPa) = 0.05036501
#
# Stress axis : x y z
#
# Youngs Moduli (GPa) = 26.81198 100.12584 152.53449
#
# Poissons Ratio (x) = -0.34428 0.46747
# Poissons Ratio (y) = -0.09219 0.32205
# Poissons Ratio (z) = 0.08217 0.21140
#
# Static dielectric constant tensor:
#      x y z
#    x 1.826330 0.000000 0.000000 
#    y 0.000000 1.914510 0.000000 
#    z 0.000000 0.000000 1.978310 
# 
# From -- ./inp_files/24764.got.cif
#   From: 2010.05.17/outbox.cif.g08.bks.cpg/sg72_13_cif.got.tgz:24764.got - 2010.06.03 17:03:01.
