data_PCOD9529165
_publ_section_title
;
Structure prediction by ZEFSAII (Michael W. Deem and Ramdas Pophale) SiO2 
 PCOD9529165
Probable space group: I B A M
;
_chemical_formula_sum "Si O2"
_cell_formula_units_Z 116
_cell_length_a 23.764791
_cell_length_b 16.805237
_cell_length_c 14.953617
_cell_angle_alpha 90.000000
_cell_angle_beta 90.000000
_cell_angle_gamma 90.000000
_cell_volume 5972.070060
_symmetry_space_group_name_H-M "I B A M"
_symmetry_group_IT_number 72
_symmetry_cell_setting 'orthorhombic'
loop_
_space_group_symop_operation_xyz
x,y,z
-x,-y,z
x,-y,1/2-z
-x,y,1/2-z
-x,-y,-z
x,y,-z
-x,y,1/2+z
x,-y,1/2+z
1/2+x,1/2+y,1/2+z
1/2-x,1/2-y,1/2+z
1/2+x,1/2-y,-z
1/2-x,1/2+y,-z
1/2-x,1/2-y,1/2-z
1/2+x,1/2+y,1/2-z
1/2-x,1/2+y,z
1/2+x,1/2-y,z
loop_
_atom_site_type_symbol
_atom_site_label
_atom_site_fract_x
_atom_site_fract_y
_atom_site_fract_z
Si Si1 0.366692 0.641186 0.643483
Si Si2 0.808334 0.301644 0.395826
Si Si3 0.297924 0.792147 0.599187
Si Si4 0.207937 0.417244 0.266938
Si Si5 0.891848 0.826659 0.149650
Si Si6 0.515002 0.381843 0.600277
Si Si7 0.000000 0.000000 0.750000
Si Si8 0.687946 0.468500 0.897851
O O1 0.323923 0.705495 0.605762
O O2 0.375489 0.659216 0.747653
O O3 0.426059 0.662354 0.597681
O O4 0.342115 0.552648 0.626440
O O5 0.802718 0.324773 0.500000
O O6 0.766998 0.226497 0.378796
O O7 0.789043 0.370300 0.327316
O O8 0.868661 0.259708 0.379537
O O9 0.302293 0.824308 0.500000
O O10 0.321779 0.853513 0.669621
O O11 0.177243 0.500000 0.250000
O O12 0.263891 0.444456 0.324718
O O13 0.859577 0.899833 0.102061
O O14 0.958388 0.838483 0.132373
O O15 0.503937 0.412458 0.500000
O O16 0.531021 0.445153 0.678456
O O17 0.710419 0.474637 0.000000
#
# Coordination Sequence:
#
# PCOD9529165 Si02
#       8
#    16  16  16  16  16  16   4  16
#     4  12  24  42  62  89 128 167 213 261 313 371
#     4  11  23  41  63  89 120 162 212 262 320 377
#     4  11  22  39  61  85 118 159 205 254 311 376
#     4  12  24  39  59  87 121 162 203 256 311 373
#     4  12  22  41  62  88 124 168 210 265 315 371
#     4  12  25  41  59  86 122 165 217 266 313 366
#     4  12  22  40  52  82 120 172 208 260 296 352
#     4  12  24  37  57  90 128 170 211 248 303 370
#
# _framework density 19.423749999999998
#
# number of rings (size 3 to 8) (size 9 to 14) (size 15 to 20)
#    0.000    0.276    4.138    7.241    0.000    2.207 
#    0.000    0.000    0.000    0.000    0.000    1.931 
#    0.000    3.310    0.000    0.000    0.000    0.000 
#
# Total GULP energy -323537.449951 kJ/mol
# GULP energy per Si atom -5578.231896 kJ/mol
# Density = 1.937954 g / cm^3
# Si number density = 19.423750 Si / 1000 Ang^3
#
#
#
# Elastic Constant Matrix: (Units=GPa)
#
#
# Indices 1 2 3 4 5 6 
#
# 1 80.7967 29.3821 6.4466 0.0000 0.0000 0.0000
# 2 29.3821 100.5931 51.4077 0.0000 0.0000 0.0000
# 3 6.4466 51.4077 158.2648 0.0000 0.0000 0.0000
# 4 0.0000 0.0000 0.0000 -2.3176 0.0000 0.0000
# 5 0.0000 0.0000 0.0000 0.0000 15.0328 0.0000
# 6 0.0000 0.0000 0.0000 0.0000 0.0000 -4.0259
#
#
#
# Elastic Compliance Matrix: (Units=1/GPa)
#
#
# Indices 1 2 3 4 5 6 
#
# 1 0.013955 -0.004539 0.000906 0.000000 0.000000 0.000000
# 2 -0.004539 0.013396 -0.004166 0.000000 0.000000 0.000000
# 3 0.000906 -0.004166 0.007635 0.000000 0.000000 0.000000
# 4 0.000000 0.000000 0.000000 -0.431490 0.000000 0.000000
# 5 0.000000 0.000000 0.000000 0.000000 0.066521 0.000000
# 6 0.000000 0.000000 0.000000 0.000000 0.000000 -0.248392
#
#
# Mechanical properties :
#
#
# Convention : Reuss Voigt Hill
#
# Bulk Modulus (GPa) = 51.58090 57.12525 54.35308
# Shear Modulus (GPa) = -8.98775 18.56576 4.78901
#
# Velocity S-wave (km/s) = -2.15343 3.09500 1.57191
# Velocity P-wave (km/s) = 4.51998 6.49968 5.59804
#
# Compressibility (1/GPa) = 0.01938702
#
# Stress axis : x y z
#
# Youngs Moduli (GPa) = 71.65821 74.64861 130.97636
#
# Poissons Ratio (x) = 0.33884 -0.11866
# Poissons Ratio (y) = 0.32527 0.54570
# Poissons Ratio (z) = -0.06492 0.31102
#
# Static dielectric constant tensor:
#      x y z
#    x 1.723990 0.000000 0.000000 
#    y 0.000000 1.724480 0.000000 
#    z 0.000000 0.000000 1.747020 
# 
# From -- ./inp_files/25379.got.cif
#   From: 2010.05.17/outbox.cif.g08.bks.cpg/sg72_13_cif.got.tgz:25379.got - 2010.06.03 17:03:01.
