data_PCOD9529696
_publ_section_title
;
Structure prediction by ZEFSAII (Michael W. Deem and Ramdas Pophale) SiO2 
 PCOD9529696
Probable space group: I B C A 
;
_chemical_formula_sum "Si O2"
_cell_formula_units_Z 120
_cell_length_a 26.904787
_cell_length_b 18.057810
_cell_length_c 11.595769
_cell_angle_alpha 90.000000
_cell_angle_beta 90.000000
_cell_angle_gamma 90.000000
_cell_volume 5633.706173
_symmetry_space_group_name_H-M "I B C A "
_symmetry_group_IT_number 73
_symmetry_cell_setting 'orthorhombic'
loop_
_space_group_symop_operation_xyz
x,y,z
-x,1/2-y,z
x,-y,1/2-z
1/2-x,y,-z
-x,-y,-z
x,1/2+y,-z
-x,y,1/2+z
1/2+x,-y,z
1/2+x,1/2+y,1/2+z
1/2-x,-y,1/2+z
1/2+x,1/2-y,-z
-x,1/2+y,1/2-z
1/2-x,1/2-y,1/2-z
1/2+x,y,1/2-z
1/2-x,1/2+y,z
x,1/2-y,1/2+z
loop_
_atom_site_type_symbol
_atom_site_label
_atom_site_fract_x
_atom_site_fract_y
_atom_site_fract_z
Si Si1 0.544655 0.912150 0.740125
Si Si2 0.541227 0.315715 0.707121
Si Si3 0.675905 0.500000 0.250000
Si Si4 0.198463 0.610776 0.933496
Si Si5 0.642706 0.273053 0.812445
Si Si6 0.368512 0.855400 0.355272
Si Si7 0.697407 0.050174 0.002312
Si Si8 0.103556 0.847815 0.979373
O O1 0.487923 0.889095 0.755199
O O2 0.572776 0.866223 0.842271
O O3 0.568698 0.882668 0.620942
O O4 0.551090 0.000000 0.750000
O O5 0.500000 0.250000 0.715443
O O6 0.587739 0.304846 0.791785
O O7 0.567445 0.322645 0.582199
O O8 0.648190 0.576613 0.273894
O O9 0.699571 0.515132 0.126577
O O10 0.185029 0.665147 0.828699
O O11 0.250000 0.628182 0.000000
O O12 0.153825 0.629415 0.021423
O O13 0.197479 0.522354 0.915275
O O14 0.650897 0.219435 0.702518
O O15 0.635011 0.218607 0.921217
O O16 0.646601 0.094772 0.017983
O O17 0.750000 0.093364 0.000000
#
# Coordination Sequence:
#
# PCOD9529696 Si02
#       8
#    16  16   8  16  16  16  16  16
#     4  11  22  41  67  91 122 170 217 262 325 387
#     4  12  26  41  63  95 131 172 216 269 343 375
#     4  10  16  38  66  88 118 164 216 254 310 396
#     4  10  23  40  64  95 132 168 208 263 333 385
#     4  11  23  42  62  94 128 171 209 268 323 393
#     4  10  18  37  64  86 118 166 211 258 305 389
#     4  10  21  42  67  97 125 172 214 266 330 382
#     4  11  24  42  67  96 124 169 226 268 310 402
#
# _framework density 21.300366
#
# number of rings (size 3 to 8) (size 9 to 14) (size 15 to 20)
#    0.000    1.333    6.000    1.600    1.867    2.667 
#    7.200    0.000    0.000    0.000    0.000    0.000 
#    0.000    0.000    0.000    0.000    0.000    0.000 
#
# Total GULP energy -334463.270113 kJ/mol
# GULP energy per Si atom -5574.387835 kJ/mol
# Density = 2.125189 g / cm^3
# Si number density = 21.300366 Si / 1000 Ang^3
#
#
#
# Elastic Constant Matrix: (Units=GPa)
#
#
# Indices 1 2 3 4 5 6 
#
# 1 80.6266 16.0581 1.2914 0.0000 0.0000 0.0000
# 2 16.0581 64.2327 6.9783 0.0000 0.0000 0.0000
# 3 1.2914 6.9783 19.3236 0.0000 0.0000 0.0000
# 4 0.0000 0.0000 0.0000 18.6557 0.0000 0.0000
# 5 0.0000 0.0000 0.0000 0.0000 18.5829 0.0000
# 6 0.0000 0.0000 0.0000 0.0000 0.0000 26.3475
#
#
#
# Elastic Compliance Matrix: (Units=1/GPa)
#
#
# Indices 1 2 3 4 5 6 
#
# 1 0.013055 -0.003298 0.000319 0.000000 0.000000 0.000000
# 2 -0.003298 0.017037 -0.005932 0.000000 0.000000 0.000000
# 3 0.000319 -0.005932 0.053871 0.000000 0.000000 0.000000
# 4 0.000000 0.000000 0.000000 0.053603 0.000000 0.000000
# 5 0.000000 0.000000 0.000000 0.000000 0.053813 0.000000
# 6 0.000000 0.000000 0.000000 0.000000 0.000000 0.037954
#
#
# Mechanical properties :
#
#
# Convention : Reuss Voigt Hill
#
# Bulk Modulus (GPa) = 15.11958 23.64874 19.38416
# Shear Modulus (GPa) = 18.57330 22.04090 20.30710
#
# Velocity S-wave (km/s) = 2.95612 3.22027 3.09102
# Velocity P-wave (km/s) = 4.33188 4.99534 4.67540
#
# Compressibility (1/GPa) = 0.06613940
#
# Stress axis : x y z
#
# Youngs Moduli (GPa) = 76.60100 58.69428 18.56280
#
# Poissons Ratio (x) = 0.19359 -0.00591
# Poissons Ratio (y) = 0.25265 0.11012
# Poissons Ratio (z) = -0.02441 0.34819
#
# Static dielectric constant tensor:
#      x y z
#    x 1.816450 0.000000 0.000000 
#    y 0.000000 1.829660 0.000000 
#    z 0.000000 0.000000 1.804500 
# 
# From -- ./inp_files/14371.got.cif
#   From: 2010.05.17/outbox.cif.g08.bks.cpg/sg73_8_cif.got.tgz:14371.got - 2010.06.03 17:35:07.
