data_PCOD9529049
_publ_section_title
;
Structure prediction by ZEFSAII (Michael W. Deem and Ramdas Pophale) SiO2 
 PCOD9529049
Probable space group: I B A M
;
_chemical_formula_sum "Si O2"
_cell_formula_units_Z 80
_cell_length_a 28.259788
_cell_length_b 18.584959
_cell_length_c 8.389427
_cell_angle_alpha 90.000000
_cell_angle_beta 90.000000
_cell_angle_gamma 90.000000
_cell_volume 4406.185798
_symmetry_space_group_name_H-M "I B A M"
_symmetry_group_IT_number 72
_symmetry_cell_setting 'orthorhombic'
loop_
_space_group_symop_operation_xyz
x,y,z
-x,-y,z
x,-y,1/2-z
-x,y,1/2-z
-x,-y,-z
x,y,-z
-x,y,1/2+z
x,-y,1/2+z
1/2+x,1/2+y,1/2+z
1/2-x,1/2-y,1/2+z
1/2+x,1/2-y,-z
1/2-x,1/2+y,-z
1/2-x,1/2-y,1/2-z
1/2+x,1/2+y,1/2-z
1/2-x,1/2+y,z
1/2+x,1/2-y,z
loop_
_atom_site_type_symbol
_atom_site_label
_atom_site_fract_x
_atom_site_fract_y
_atom_site_fract_z
Si Si1 0.550314 0.269175 0.308113
Si Si2 0.414405 0.423282 0.191823
Si Si3 0.151360 0.712569 0.192513
Si Si4 0.312720 0.367985 0.194096
Si Si5 0.789202 0.578766 0.809736
O O1 0.500000 0.241586 0.250000
O O2 0.550568 0.269787 0.500000
O O3 0.557882 0.352044 0.253347
O O4 0.596943 0.225449 0.256886
O O5 0.432267 0.500000 0.250000
O O6 0.359773 0.410877 0.244531
O O7 0.414963 0.423161 0.000000
O O8 0.179904 0.784709 0.241872
O O9 0.175245 0.641161 0.257039
O O10 0.152159 0.710393 0.000000
O O11 0.263556 0.400893 0.251695
O O12 0.312434 0.368994 0.000000
O O13 0.802733 0.500000 0.750000
O O14 0.787199 0.577577 0.000000
#
# Coordination Sequence:
#
# PCOD9529049 Si02
#       5
#    16  16  16  16  16
#     4   9  19  34  52  71  94 125 162 203 249 293
#     4   9  17  30  46  68  99 134 166 199 237 280
#     4   9  18  35  54  72  97 129 162 202 245 286
#     4   8  16  31  50  71  99 133 168 199 233 278
#     4  11  21  32  49  75 103 132 163 198 238 285
#
# _framework density 18.156293999999999
#
# number of rings (size 3 to 8) (size 9 to 14) (size 15 to 20)
#    0.000    2.800    0.000    4.200    0.000    2.000 
#    0.000    7.000    0.000    0.600    0.000    4.200 
#    0.000    0.000    0.000    0.000    0.000    0.000 
#
# Total GULP energy -223112.953332 kJ/mol
# GULP energy per Si atom -5577.823833 kJ/mol
# Density = 1.811497 g / cm^3
# Si number density = 18.156294 Si / 1000 Ang^3
#
#
#
# Elastic Constant Matrix: (Units=GPa)
#
#
# Indices 1 2 3 4 5 6 
#
# 1 64.9677 15.2900 5.9044 0.0000 0.0000 0.0000
# 2 15.2900 72.3493 6.6005 0.0000 0.0000 0.0000
# 3 5.9044 6.6005 10.7178 0.0000 0.0000 0.0000
# 4 0.0000 0.0000 0.0000 23.2424 0.0000 0.0000
# 5 0.0000 0.0000 0.0000 0.0000 17.4536 0.0000
# 6 0.0000 0.0000 0.0000 0.0000 0.0000 4.9875
#
#
#
# Elastic Compliance Matrix: (Units=1/GPa)
#
#
# Indices 1 2 3 4 5 6 
#
# 1 0.016743 -0.002857 -0.007464 0.000000 0.000000 0.000000
# 2 -0.002857 0.015132 -0.007745 0.000000 0.000000 0.000000
# 3 -0.007464 -0.007745 0.102185 0.000000 0.000000 0.000000
# 4 0.000000 0.000000 0.000000 0.043025 0.000000 0.000000
# 5 0.000000 0.000000 0.000000 0.000000 0.057295 0.000000
# 6 0.000000 0.000000 0.000000 0.000000 0.000000 0.200502
#
#
# Mechanical properties :
#
#
# Convention : Reuss Voigt Hill
#
# Bulk Modulus (GPa) = 10.21167 22.62496 16.41832
# Shear Modulus (GPa) = 9.92738 17.15268 13.54003
#
# Velocity S-wave (km/s) = 2.34086 3.07697 2.73380
# Velocity P-wave (km/s) = 3.59759 5.01118 4.36203
#
# Compressibility (1/GPa) = 0.09792715
#
# Stress axis : x y z
#
# Youngs Moduli (GPa) = 59.72609 66.08373 9.78620
#
# Poissons Ratio (x) = 0.18883 0.07304
# Poissons Ratio (y) = 0.17067 0.07579
# Poissons Ratio (z) = 0.44579 0.51182
#
# Static dielectric constant tensor:
#      x y z
#    x 1.631750 0.000000 0.000000 
#    y 0.000000 1.601400 0.000000 
#    z 0.000000 0.000000 1.631820 
# 
# From -- ./inp_files/4775.got.cif
#   From: 2010.05.17/outbox.cif.g08.bks.cpg/sg72_3_cif.got.tgz:4775.got - 2010.06.03 17:03:01.
