data_PCOD9529258
_publ_section_title
;
Structure prediction by ZEFSAII (Michael W. Deem and Ramdas Pophale) SiO2 
 PCOD9529258
Probable space group: I B A M
;
_chemical_formula_sum "Si O2"
_cell_formula_units_Z 64
_cell_length_a 9.765422
_cell_length_b 17.202251
_cell_length_c 16.849865
_cell_angle_alpha 90.000000
_cell_angle_beta 90.000000
_cell_angle_gamma 90.000000
_cell_volume 2830.562322
_symmetry_space_group_name_H-M "I B A M"
_symmetry_group_IT_number 72
_symmetry_cell_setting 'orthorhombic'
loop_
_space_group_symop_operation_xyz
x,y,z
-x,-y,z
x,-y,1/2-z
-x,y,1/2-z
-x,-y,-z
x,y,-z
-x,y,1/2+z
x,-y,1/2+z
1/2+x,1/2+y,1/2+z
1/2-x,1/2-y,1/2+z
1/2+x,1/2-y,-z
1/2-x,1/2+y,-z
1/2-x,1/2-y,1/2-z
1/2+x,1/2+y,1/2-z
1/2-x,1/2+y,z
1/2+x,1/2-y,z
loop_
_atom_site_type_symbol
_atom_site_label
_atom_site_fract_x
_atom_site_fract_y
_atom_site_fract_z
Si Si1 0.033131 0.735660 0.660253
Si Si2 0.087258 0.421485 0.406465
Si Si3 0.796772 0.824399 0.408123
Si Si4 0.340469 0.505513 0.345021
O O1 0.192729 0.730201 0.640283
O O2 0.000000 0.758916 0.750000
O O3 0.973110 0.649831 0.642829
O O4 0.949654 0.793485 0.604125
O O5 0.077412 0.403196 0.500000
O O6 0.242870 0.440817 0.383019
O O7 0.000000 0.500000 0.391504
O O8 0.757029 0.823507 0.500000
O O9 0.788248 0.911188 0.375002
O O10 0.500000 0.500000 0.367193
O O11 0.329806 0.500000 0.250000
#
# Coordination Sequence:
#
# PCOD9529258 Si02
#       4
#    16  16  16  16
#     4  12  27  45  73 102 143 186 231 284 350 417
#     4  11  23  43  69  99 135 178 231 285 343 406
#     4  12  26  47  71 104 144 183 232 286 348 418
#     4  11  26  44  71 101 140 180 232 289 345 411
#
# _framework density 22.610348999999999
#
# number of rings (size 3 to 8) (size 9 to 14) (size 15 to 20)
#    0.000    0.500    2.500    5.250    7.000    2.000 
#    0.000    0.000    0.000    0.000    0.000    0.000 
#    0.000    0.000    0.000    0.000    0.000    0.000 
#
# Total GULP energy -179354.899420 kJ/mol
# GULP energy per Si atom -5604.840607 kJ/mol
# Density = 2.255889 g / cm^3
# Si number density = 22.610349 Si / 1000 Ang^3
#
#
#
# Elastic Constant Matrix: (Units=GPa)
#
#
# Indices 1 2 3 4 5 6 
#
# 1 90.5010 -10.6440 4.3156 0.0000 0.0000 0.0000
# 2 -10.6440 38.2460 -6.5219 0.0000 0.0000 0.0000
# 3 4.3156 -6.5219 81.7609 0.0000 0.0000 0.0000
# 4 0.0000 0.0000 0.0000 37.9573 0.0000 0.0000
# 5 0.0000 0.0000 0.0000 0.0000 -17.4376 0.0000
# 6 0.0000 0.0000 0.0000 0.0000 0.0000 131.2711
#
#
#
# Elastic Compliance Matrix: (Units=1/GPa)
#
#
# Indices 1 2 3 4 5 6 
#
# 1 0.011434 0.003122 -0.000355 0.000000 0.000000 0.000000
# 2 0.003122 0.027359 0.002018 0.000000 0.000000 0.000000
# 3 -0.000355 0.002018 0.012410 0.000000 0.000000 0.000000
# 4 0.000000 0.000000 0.000000 0.026345 0.000000 0.000000
# 5 0.000000 0.000000 0.000000 0.000000 -0.057347 0.000000
# 6 0.000000 0.000000 0.000000 0.000000 0.000000 0.007618
#
#
# Mechanical properties :
#
#
# Convention : Reuss Voigt Hill
#
# Bulk Modulus (GPa) = 16.45475 20.53416 18.49446
# Shear Modulus (GPa) = 129.84507 45.24871 87.54689
#
# Velocity S-wave (km/s) = 7.58630 4.47837 6.22928
# Velocity P-wave (km/s) = 9.16675 5.98687 7.74183
#
# Compressibility (1/GPa) = 0.06077271
#
# Stress axis : x y z
#
# Youngs Moduli (GPa) = 87.46121 36.55066 80.57730
#
# Poissons Ratio (x) = -0.11409 0.02857
# Poissons Ratio (y) = -0.27302 -0.16257
# Poissons Ratio (z) = 0.03101 -0.07375
#
# Static dielectric constant tensor:
#      x y z
#    x 1.840290 0.000000 0.000000 
#    y 0.000000 1.813320 0.000000 
#    z 0.000000 0.000000 1.817810 
# 
# From -- ./inp_files/19676.got.cif
#   From: 2010.05.17/outbox.cif.g08.bks.cpg/sg72_10_cif.got.tgz:19676.got - 2010.06.03 17:03:01.
