data_PCOD9529344
_publ_section_title
;
Structure prediction by ZEFSAII (Michael W. Deem and Ramdas Pophale) SiO2 
 PCOD9529344
Probable space group: I B A M
;
_chemical_formula_sum "Si O2"
_cell_formula_units_Z 64
_cell_length_a 9.873964
_cell_length_b 16.039750
_cell_length_c 16.486745
_cell_angle_alpha 90.000000
_cell_angle_beta 90.000000
_cell_angle_gamma 90.000000
_cell_volume 2611.103309
_symmetry_space_group_name_H-M "I B A M"
_symmetry_group_IT_number 72
_symmetry_cell_setting 'orthorhombic'
loop_
_space_group_symop_operation_xyz
x,y,z
-x,-y,z
x,-y,1/2-z
-x,y,1/2-z
-x,-y,-z
x,y,-z
-x,y,1/2+z
x,-y,1/2+z
1/2+x,1/2+y,1/2+z
1/2-x,1/2-y,1/2+z
1/2+x,1/2-y,-z
1/2-x,1/2+y,-z
1/2-x,1/2-y,1/2-z
1/2+x,1/2+y,1/2-z
1/2-x,1/2+y,z
1/2+x,1/2-y,z
loop_
_atom_site_type_symbol
_atom_site_label
_atom_site_fract_x
_atom_site_fract_y
_atom_site_fract_z
Si Si1 0.183924 0.056342 0.168061
Si Si2 0.030981 0.794263 0.837126
Si Si3 0.249886 0.601261 0.591985
Si Si4 0.949478 0.377534 0.092862
O O1 0.328856 0.099803 0.153356
O O2 0.072331 0.128078 0.159438
O O3 0.175228 0.000000 0.250000
O O4 0.172093 0.985589 0.099777
O O5 0.179943 0.833054 0.848440
O O6 0.018729 0.721143 0.901577
O O7 0.000000 0.755099 0.750000
O O8 0.255130 0.632981 0.500000
O O9 0.094302 0.582291 0.612746
O O10 0.912067 0.399334 0.000000
#
# Coordination Sequence:
#
# PCOD9529344 Si02
#       4
#    16  16  16  16
#     4  12  26  46  73 109 147 191 243 305 367 438
#     4  12  26  45  71 106 147 189 243 301 362 436
#     4  11  25  45  72 105 143 190 242 301 369 439
#     4  11  27  48  73 108 147 192 248 299 365 442
#
# _framework density 24.510712000000002
#
# number of rings (size 3 to 8) (size 9 to 14) (size 15 to 20)
#    0.000    0.500    2.500    4.500    3.500   12.000 
#    0.000    0.000    0.000    0.000    0.000    0.000 
#    0.000    0.000    0.000    0.000    0.000    0.000 
#
# Total GULP energy -179091.443669 kJ/mol
# GULP energy per Si atom -5596.607615 kJ/mol
# Density = 2.445492 g / cm^3
# Si number density = 24.510712 Si / 1000 Ang^3
#
#
#
# Elastic Constant Matrix: (Units=GPa)
#
#
# Indices 1 2 3 4 5 6 
#
# 1 124.1452 24.8746 40.5781 0.0000 0.0000 0.0000
# 2 24.8746 90.8450 10.0985 0.0000 0.0000 0.0000
# 3 40.5781 10.0985 70.7778 0.0000 0.0000 0.0000
# 4 0.0000 0.0000 0.0000 43.9910 0.0000 0.0000
# 5 0.0000 0.0000 0.0000 0.0000 27.5513 0.0000
# 6 0.0000 0.0000 0.0000 0.0000 0.0000 41.6715
#
#
#
# Elastic Compliance Matrix: (Units=1/GPa)
#
#
# Indices 1 2 3 4 5 6 
#
# 1 0.010330 -0.002205 -0.005608 0.000000 0.000000 0.000000
# 2 -0.002205 0.011656 -0.000399 0.000000 0.000000 0.000000
# 3 -0.005608 -0.000399 0.017401 0.000000 0.000000 0.000000
# 4 0.000000 0.000000 0.000000 0.022732 0.000000 0.000000
# 5 0.000000 0.000000 0.000000 0.000000 0.036296 0.000000
# 6 0.000000 0.000000 0.000000 0.000000 0.000000 0.023997
#
#
# Mechanical properties :
#
#
# Convention : Reuss Voigt Hill
#
# Bulk Modulus (GPa) = 43.54800 48.54116 46.04458
# Shear Modulus (GPa) = 34.13228 36.65721 35.39474
#
# Velocity S-wave (km/s) = 3.73573 3.87144 3.80419
# Velocity P-wave (km/s) = 6.03432 6.31119 6.17431
#
# Compressibility (1/GPa) = 0.02296317
#
# Stress axis : x y z
#
# Youngs Moduli (GPa) = 96.80695 85.79358 57.46931
#
# Poissons Ratio (x) = 0.18918 0.32227
# Poissons Ratio (y) = 0.21347 0.02292
# Poissons Ratio (z) = 0.54286 0.03422
#
# Static dielectric constant tensor:
#      x y z
#    x 1.957500 0.000000 0.000000 
#    y 0.000000 1.992350 0.000000 
#    z 0.000000 0.000000 1.923040 
# 
# From -- ./inp_files/19700.got.cif
#   From: 2010.05.17/outbox.cif.g08.bks.cpg/sg72_10_cif.got.tgz:19700.got - 2010.06.03 17:03:01.
