data_PCOD9529024
_publ_section_title
;
Structure prediction by ZEFSAII (Michael W. Deem and Ramdas Pophale) SiO2 
 PCOD9529024
Probable space group: I B A M
;
_chemical_formula_sum "Si O2"
_cell_formula_units_Z 64
_cell_length_a 5.025987
_cell_length_b 33.062230
_cell_length_c 19.666933
_cell_angle_alpha 90.000000
_cell_angle_beta 90.000000
_cell_angle_gamma 90.000000
_cell_volume 3268.060907
_symmetry_space_group_name_H-M "I B A M"
_symmetry_group_IT_number 72
_symmetry_cell_setting 'orthorhombic'
loop_
_space_group_symop_operation_xyz
x,y,z
-x,-y,z
x,-y,1/2-z
-x,y,1/2-z
-x,-y,-z
x,y,-z
-x,y,1/2+z
x,-y,1/2+z
1/2+x,1/2+y,1/2+z
1/2-x,1/2-y,1/2+z
1/2+x,1/2-y,-z
1/2-x,1/2+y,-z
1/2-x,1/2-y,1/2-z
1/2+x,1/2+y,1/2-z
1/2-x,1/2+y,z
1/2+x,1/2-y,z
loop_
_atom_site_type_symbol
_atom_site_label
_atom_site_fract_x
_atom_site_fract_y
_atom_site_fract_z
Si Si1 0.085891 0.836716 0.619614
Si Si2 0.930959 0.386007 0.418748
Si Si3 0.715594 0.278513 0.000000
Si Si4 0.236133 0.973043 0.078672
Si Si5 0.500000 0.719670 0.250000
O O1 0.307957 0.872066 0.622563
O O2 0.217236 0.806584 0.565437
O O3 0.025151 0.810346 0.685878
O O4 0.809921 0.854553 0.591243
O O5 0.997971 0.388975 0.500000
O O6 0.816706 0.429175 0.394111
O O7 0.449614 0.252975 0.000000
O O8 0.500000 0.000000 0.078103
O O9 0.152867 0.964740 0.000000
O O10 0.000000 0.000000 0.109949
O O11 0.250000 0.750000 0.250000
#
# Coordination Sequence:
#
# PCOD9529024 Si02
#       5
#    16  16   8  16   8
#     4  12  23  39  60  86 115 157 197 250 304 353
#     4  11  20  36  58  89 123 154 195 248 295 354
#     4  12  22  36  56  82 108 142 190 242 306 358
#     4   9  17  29  49  81 121 158 186 224 285 345
#     4  12  26  46  62  82 117 156 205 254 302 370
#
# _framework density 19.583476999999998
#
# number of rings (size 3 to 8) (size 9 to 14) (size 15 to 20)
#    0.000    1.000    2.500    6.000    0.000    4.000 
#    0.000    0.000    0.000    0.000    0.000   13.125 
#    0.000    0.000    0.000    0.000    0.000    0.000 
#
# Total GULP energy -178706.705688 kJ/mol
# GULP energy per Si atom -5584.584553 kJ/mol
# Density = 1.953890 g / cm^3
# Si number density = 19.583477 Si / 1000 Ang^3
#
#
#
# Elastic Constant Matrix: (Units=GPa)
#
#
# Indices 1 2 3 4 5 6 
#
# 1 121.0175 31.8120 12.0022 0.0000 0.0000 0.0000
# 2 31.8120 107.6684 42.8272 0.0000 0.0000 0.0000
# 3 12.0022 42.8272 65.3093 0.0000 0.0000 0.0000
# 4 0.0000 0.0000 0.0000 19.7276 0.0000 0.0000
# 5 0.0000 0.0000 0.0000 0.0000 18.1434 0.0000
# 6 0.0000 0.0000 0.0000 0.0000 0.0000 53.9996
#
#
#
# Elastic Compliance Matrix: (Units=1/GPa)
#
#
# Indices 1 2 3 4 5 6 
#
# 1 0.008960 -0.002695 0.000121 0.000000 0.000000 0.000000
# 2 -0.002695 0.013376 -0.008276 0.000000 0.000000 0.000000
# 3 0.000121 -0.008276 0.020717 0.000000 0.000000 0.000000
# 4 0.000000 0.000000 0.000000 0.050690 0.000000 0.000000
# 5 0.000000 0.000000 0.000000 0.000000 0.055117 0.000000
# 6 0.000000 0.000000 0.000000 0.000000 0.000000 0.018519
#
#
# Mechanical properties :
#
#
# Convention : Reuss Voigt Hill
#
# Bulk Modulus (GPa) = 46.83531 51.91976 49.37753
# Shear Modulus (GPa) = 25.48460 32.19769 28.84114
#
# Velocity S-wave (km/s) = 3.61131 4.05918 3.84178
# Velocity P-wave (km/s) = 6.43089 6.96698 6.70430
#
# Compressibility (1/GPa) = 0.02135141
#
# Stress axis : x y z
#
# Youngs Moduli (GPa) = 111.60943 74.75969 48.27011
#
# Poissons Ratio (x) = 0.20151 -0.00584
# Poissons Ratio (y) = 0.30083 0.39949
# Poissons Ratio (z) = -0.01350 0.61873
#
# Static dielectric constant tensor:
#      x y z
#    x 1.727950 0.000000 0.000000 
#    y 0.000000 1.757030 0.000000 
#    z 0.000000 0.000000 1.677050 
# 
# From -- ./inp_files/27043.got.cif
#   From: 2010.05.17/outbox.cif.g08.bks.cpg/sg72_14_cif.got.tgz:27043.got - 2010.06.03 17:03:01.
