data_PCOD9529726
_publ_section_title
;
Structure prediction by ZEFSAII (Michael W. Deem and Ramdas Pophale) SiO2 
 PCOD9529726
Probable space group: I B C A 
;
_chemical_formula_sum "Si O2"
_cell_formula_units_Z 112
_cell_length_a 14.154118
_cell_length_b 13.795077
_cell_length_c 20.361347
_cell_angle_alpha 90.000000
_cell_angle_beta 90.000000
_cell_angle_gamma 90.000000
_cell_volume 3975.698538
_symmetry_space_group_name_H-M "I B C A "
_symmetry_group_IT_number 73
_symmetry_cell_setting 'orthorhombic'
loop_
_space_group_symop_operation_xyz
x,y,z
-x,1/2-y,z
x,-y,1/2-z
1/2-x,y,-z
-x,-y,-z
x,1/2+y,-z
-x,y,1/2+z
1/2+x,-y,z
1/2+x,1/2+y,1/2+z
1/2-x,-y,1/2+z
1/2+x,1/2-y,-z
-x,1/2+y,1/2-z
1/2-x,1/2-y,1/2-z
1/2+x,y,1/2-z
1/2-x,1/2+y,z
x,1/2-y,1/2+z
loop_
_atom_site_type_symbol
_atom_site_label
_atom_site_fract_x
_atom_site_fract_y
_atom_site_fract_z
Si Si1 0.495175 0.860208 0.090019
Si Si2 0.925403 0.895460 0.266843
Si Si3 0.292731 0.155663 0.433387
Si Si4 0.594756 0.351677 0.115260
Si Si5 0.895464 0.625605 0.114734
Si Si6 0.197965 0.127284 0.112431
Si Si7 0.281420 0.638066 0.260196
O O1 0.500000 0.750000 0.064337
O O2 0.479446 0.856779 0.169577
O O3 0.394413 0.894493 0.061933
O O4 0.599817 0.902439 0.078397
O O5 0.915158 0.846056 0.195372
O O6 0.815262 0.907632 0.288337
O O7 0.965029 0.000000 0.250000
O O8 0.250000 0.197657 0.500000
O O9 0.204043 0.088858 0.412981
O O10 0.304920 0.253074 0.389401
O O11 0.499824 0.409567 0.096866
O O12 0.597347 0.239418 0.094616
O O13 0.694350 0.394786 0.092784
O O14 0.869876 0.627279 0.191936
O O15 0.193604 0.098144 0.188840
O O16 0.250000 0.750000 0.250000
#
# Coordination Sequence:
#
# PCOD9529726 Si02
#       7
#    16  16  16  16  16  16  16
#     4  10  19  34  55  76 114 161 192 231 294 357
#     4  11  21  32  53  90 124 149 186 242 289 355
#     4  10  19  32  51  83 112 139 199 253 286 331
#     4   9  19  30  49  77 110 146 182 221 288 346
#     4  10  17  31  54  77 105 149 185 229 283 352
#     4   9  18  31  48  76 105 148 185 223 289 347
#     4  11  15  31  55  76 112 151 185 221 295 365
#
# _framework density 28.171150999999998
#
# number of rings (size 3 to 8) (size 9 to 14) (size 15 to 20)
#    0.000    2.000    5.714    1.714    2.000    0.000 
#   15.429    6.429    0.000    0.000    0.000   10.000 
#    0.000    0.000    0.000    0.000    0.000    0.000 
#
# Total GULP energy -312820.057941 kJ/mol
# GULP energy per Si atom -5586.072463 kJ/mol
# Density = 2.810703 g / cm^3
# Si number density = 28.171151 Si / 1000 Ang^3
#
#
#
# Elastic Constant Matrix: (Units=GPa)
#
#
# Indices 1 2 3 4 5 6 
#
# 1 352.4495 37.1626 22.5674 0.0000 0.0000 0.0000
# 2 37.1626 84.2326 1.7055 0.0000 0.0000 0.0000
# 3 22.5674 1.7055 56.3702 0.0000 0.0000 0.0000
# 4 0.0000 0.0000 0.0000 -3.1324 0.0000 0.0000
# 5 0.0000 0.0000 0.0000 0.0000 30.0207 0.0000
# 6 0.0000 0.0000 0.0000 0.0000 0.0000 45.3002
#
#
#
# Elastic Compliance Matrix: (Units=1/GPa)
#
#
# Indices 1 2 3 4 5 6 
#
# 1 0.003052 -0.001323 -0.001182 0.000000 0.000000 0.000000
# 2 -0.001323 0.012452 0.000153 0.000000 0.000000 0.000000
# 3 -0.001182 0.000153 0.018208 0.000000 0.000000 0.000000
# 4 0.000000 0.000000 0.000000 -0.319239 0.000000 0.000000
# 5 0.000000 0.000000 0.000000 0.000000 0.033310 0.000000
# 6 0.000000 0.000000 0.000000 0.000000 0.000000 0.022075
#
#
# Mechanical properties :
#
#
# Convention : Reuss Voigt Hill
#
# Bulk Modulus (GPa) = 34.47164 68.43592 51.45378
# Shear Modulus (GPa) = -23.17317 43.21214 10.01949
#
# Velocity S-wave (km/s) = -2.87119 3.92077 1.88795
# Velocity P-wave (km/s) = 1.12759 6.69643 4.80175
#
# Compressibility (1/GPa) = 0.02900935
#
# Stress axis : x y z
#
# Youngs Moduli (GPa) = 327.60627 80.30586 54.91952
#
# Poissons Ratio (x) = 0.10623 0.06492
# Poissons Ratio (y) = 0.43335 -0.00839
# Poissons Ratio (z) = 0.38723 -0.01227
#
# Static dielectric constant tensor:
#      x y z
#    x 2.258900 0.000000 0.000000 
#    y 0.000000 2.174120 0.000000 
#    z 0.000000 0.000000 2.295120 
# 
# From -- ./inp_files/29534.got.cif
#   From: 2010.05.17/outbox.cif.g08.bks.cpg/sg73_15_cif.got.tgz:29534.got - 2010.06.03 17:35:07.
