data_PCOD9529536
_publ_section_title
;
Structure prediction by ZEFSAII (Michael W. Deem and Ramdas Pophale) SiO2 
 PCOD9529536
Probable space group: I B A M
;
_chemical_formula_sum "Si O2"
_cell_formula_units_Z 58
_cell_length_a 27.000000
_cell_length_b 24.000000
_cell_length_c 9.000000
_cell_angle_alpha 90.000000
_cell_angle_beta 90.000000
_cell_angle_gamma 90.000000
_cell_volume 5832.000000
_symmetry_space_group_name_H-M "I B A M"
_symmetry_group_IT_number 72
_symmetry_cell_setting 'orthorhombic'
loop_
_space_group_symop_operation_xyz
x,y,z
-x,-y,z
x,-y,1/2-z
-x,y,1/2-z
-x,-y,-z
x,y,-z
-x,y,1/2+z
x,-y,1/2+z
1/2+x,1/2+y,1/2+z
1/2-x,1/2-y,1/2+z
1/2+x,1/2-y,-z
1/2-x,1/2+y,-z
1/2-x,1/2-y,1/2-z
1/2+x,1/2+y,1/2-z
1/2-x,1/2+y,z
1/2+x,1/2-y,z
loop_
_atom_site_type_symbol
_atom_site_label
_atom_site_fract_x
_atom_site_fract_y
_atom_site_fract_z
Si Si1 0.284482 0.830815 0.823535
Si Si2 0.500000 0.000000 0.250000
Si Si3 0.446019 0.198619 0.818398
Si Si4 0.409610 0.322715 0.177002
Si Si5 0.683117 0.055151 0.675298
Si Si6 0.414234 0.083873 0.328715
Si Si7 0.685443 0.713541 0.324581
Si Si8 0.554166 0.445204 0.320288
O O1 0.297248 0.888703 0.749468
O O2 0.322576 0.779749 0.799330
O O3 0.236457 0.806812 0.743456
O O4 0.277367 0.836528 0.000000
O O5 0.462871 0.044361 0.328772
O O6 0.500000 0.192105 0.750000
O O7 0.431980 0.262611 0.777072
O O8 0.419917 0.146021 0.738828
O O9 0.443564 0.193068 0.000000
O O10 0.354990 0.320357 0.238382
O O11 0.429261 0.382988 0.223968
O O12 0.411943 0.322324 0.000000
O O13 0.690179 0.054823 0.500000
O O14 0.625395 0.056575 0.718722
O O15 0.705301 0.000000 0.750000
O O16 0.396200 0.087371 0.500000
O O17 0.684509 0.704341 0.500000
O O18 0.580609 0.500000 0.250000
O O19 0.500000 0.446787 0.250000
O O20 0.554002 0.449842 0.500000
#
# Coordination Sequence:
#
# PCOD9529536 Si02
#       8
#    16   4  16  16  16  16  16  16
#     4  10  21  40  64  89 119 152 191 238 292 353
#     4  12  26  40  64  82 118 160 208 252 294 348
#     4  11  23  38  57  83 118 157 200 249 300 350
#     4  10  22  38  57  85 120 156 192 239 296 353
#     4  12  25  41  62  88 119 154 198 245 294 349
#     4  12  25  41  61  85 117 158 208 253 299 350
#     4  10  21  37  62  92 118 149 190 239 294 351
#     4  10  20  36  58  84 115 153 196 236 283 342
#
# _framework density 9.9451300000000007
#
# number of rings (size 3 to 8) (size 9 to 14) (size 15 to 20)
#    0.000    1.241    1.379    5.172    0.000    7.172 
#    0.000    0.690    0.000    1.655    0.000    0.000 
#    0.000    0.000    0.000    0.000    0.000    0.000 
#
# Total GULP energy -323085.560089 kJ/mol
# GULP energy per Si atom -5570.440691 kJ/mol
# Density = 0.992249 g / cm^3
# Si number density = 9.945130 Si / 1000 Ang^3
#
#
#
# Elastic Constant Matrix: (Units=GPa)
#
#
# Indices 1 2 3 4 5 6 
#
# 1 53.6885 57.3823 28.3010 0.0000 0.0000 0.0000
# 2 57.3823 202.1865 79.7232 0.0000 0.0000 0.0000
# 3 28.3010 79.7232 119.3826 0.0000 0.0000 0.0000
# 4 0.0000 0.0000 0.0000 14.7157 0.0000 0.0000
# 5 0.0000 0.0000 0.0000 0.0000 21.1728 0.0000
# 6 0.0000 0.0000 0.0000 0.0000 0.0000 22.0339
#
#
#
# Elastic Compliance Matrix: (Units=1/GPa)
#
#
# Indices 1 2 3 4 5 6 
#
# 1 0.027000 -0.006976 -0.001742 0.000000 0.000000 0.000000
# 2 -0.006976 0.008516 -0.004033 0.000000 0.000000 0.000000
# 3 -0.001742 -0.004033 0.011483 0.000000 0.000000 0.000000
# 4 0.000000 0.000000 0.000000 0.067955 0.000000 0.000000
# 5 0.000000 0.000000 0.000000 0.000000 0.047230 0.000000
# 6 0.000000 0.000000 0.000000 0.000000 0.000000 0.045385
#
#
# Mechanical properties :
#
#
# Convention : Reuss Voigt Hill
#
# Bulk Modulus (GPa) = 46.51958 78.45228 62.48593
# Shear Modulus (GPa) = 20.81277 25.57456 23.19366
#
# Velocity S-wave (km/s) = 3.23829 3.58967 3.41850
# Velocity P-wave (km/s) = 6.11726 7.53055 6.86040
#
# Compressibility (1/GPa) = 0.02149633
#
# Stress axis : x y z
#
# Youngs Moduli (GPa) = 37.03668 117.42442 87.08635
#
# Poissons Ratio (x) = 0.81915 0.15172
# Poissons Ratio (y) = 0.25837 0.35125
# Poissons Ratio (z) = 0.06453 0.47361
#
# Static dielectric constant tensor:
#      x y z
#    x 1.714550 0.000000 0.000000 
#    y 0.000000 1.785660 0.000000 
#    z 0.000000 0.000000 1.647970 
# 
# From -- ./inp_files/8450.got.cif
#   From: 2010.05.17/outbox.ucp.g08.bks.cvg/sg72_5_cif.got.tgz:8450.got - 2010.06.11 16:33:07.
