data_PCOD9530509
_publ_section_title
;
Structure prediction by ZEFSAII (Michael W. Deem and Ramdas Pophale) SiO2 
 PCOD9530509
Probable space group: I B C A 
;
_chemical_formula_sum "Si O2"
_cell_formula_units_Z 64
_cell_length_a 14.261436
_cell_length_b 23.508857
_cell_length_c 7.135766
_cell_angle_alpha 90.000000
_cell_angle_beta 90.000000
_cell_angle_gamma 90.000000
_cell_volume 2392.408692
_symmetry_space_group_name_H-M "I B C A "
_symmetry_group_IT_number 73
_symmetry_cell_setting 'orthorhombic'
loop_
_space_group_symop_operation_xyz
x,y,z
-x,1/2-y,z
x,-y,1/2-z
1/2-x,y,-z
-x,-y,-z
x,1/2+y,-z
-x,y,1/2+z
1/2+x,-y,z
1/2+x,1/2+y,1/2+z
1/2-x,-y,1/2+z
1/2+x,1/2-y,-z
-x,1/2+y,1/2-z
1/2-x,1/2-y,1/2-z
1/2+x,y,1/2-z
1/2-x,1/2+y,z
x,1/2-y,1/2+z
loop_
_atom_site_type_symbol
_atom_site_label
_atom_site_fract_x
_atom_site_fract_y
_atom_site_fract_z
Si Si1 0.250000 0.150045 0.000000
Si Si2 0.875979 0.813115 0.323936
Si Si3 0.617289 0.051300 0.476066
Si Si4 0.896632 0.934432 0.418806
Si Si5 0.000000 0.250000 0.921194
O O1 0.207311 0.184706 0.825555
O O2 0.175332 0.105390 0.089888
O O3 0.869410 0.869581 0.447856
O O4 0.905400 0.762820 0.462864
O O5 0.970693 0.806280 0.195114
O O6 0.509015 0.059348 0.426897
O O7 0.627922 0.056676 0.701345
O O8 0.642118 0.984452 0.448219
#
# Coordination Sequence:
#
# PCOD9530509 Si02
#       5
#     8  16  16  16   8
#     4  10  20  34  58  86 124 150 188 254 312 346
#     4  10  20  37  59  85 119 159 204 255 296 346
#     4   9  18  33  57  86 112 147 190 237 298 375
#     4   9  17  34  56  78 111 150 190 230 293 366
#     4  10  22  38  62  86 116 168 220 242 290 362
#
# _framework density 26.751282
#
# number of rings (size 3 to 8) (size 9 to 14) (size 15 to 20)
#    0.000    2.500    0.000    3.000    0.000    1.000 
#    0.000   20.000    0.000   19.500    0.000    0.000 
#    0.000    0.000    0.000    0.000    0.000    0.000 
#
# Total GULP energy -178458.275211 kJ/mol
# GULP energy per Si atom -5576.821100 kJ/mol
# Density = 2.669040 g / cm^3
# Si number density = 26.751282 Si / 1000 Ang^3
#
#
#
# Elastic Constant Matrix: (Units=GPa)
#
#
# Indices 1 2 3 4 5 6 
#
# 1 88.2455 23.7167 25.5278 0.0001 0.0001 0.0000
# 2 23.7167 118.9103 53.1991 -0.0014 -0.0003 -0.0011
# 3 25.5278 53.1991 82.6441 -0.0136 -0.0045 -0.0067
# 4 0.0001 -0.0014 -0.0136 32.9767 -0.0001 -0.0015
# 5 0.0001 -0.0003 -0.0045 -0.0001 17.9125 0.0001
# 6 0.0000 -0.0011 -0.0067 -0.0015 0.0001 66.8411
#
#
#
# Elastic Compliance Matrix: (Units=1/GPa)
#
#
# Indices 1 2 3 4 5 6 
#
# 1 0.012542 -0.001079 -0.003179 -0.000001 -0.000001 0.000000
# 2 -0.001079 0.011904 -0.007329 -0.000003 -0.000002 -0.000001
# 3 -0.003179 -0.007329 0.017800 0.000007 0.000004 0.000002
# 4 -0.000001 -0.000003 0.000007 0.030324 0.000000 0.000001
# 5 -0.000001 -0.000002 0.000004 0.000000 0.055827 0.000000
# 6 0.000000 -0.000001 0.000002 0.000001 0.000000 0.014961
#
#
# Mechanical properties :
#
#
# Convention : Reuss Voigt Hill
#
# Bulk Modulus (GPa) = 52.43786 54.96523 53.70154
# Shear Modulus (GPa) = 28.91997 36.03647 32.47822
#
# Velocity S-wave (km/s) = 3.29153 3.67426 3.48815
# Velocity P-wave (km/s) = 5.83867 6.21221 6.02834
#
# Compressibility (1/GPa) = 0.01907019
#
# Stress axis : x y z
#
# Youngs Moduli (GPa) = 79.73358 84.00509 56.17893
#
# Poissons Ratio (x) = 0.09064 0.17862
# Poissons Ratio (y) = 0.08603 0.41176
# Poissons Ratio (z) = 0.25351 0.61571
#
# Static dielectric constant tensor:
#      x y z
#    x 2.095400 0.000000 0.000000 
#    y 0.000000 2.192170 0.000000 
#    z 0.000000 0.000000 2.186640 
# 
# From -- ./inp_files/4693.got.cif
#   From: 2010.05.17/outbox.cif.g08.bks.cpg/sg73_3_cif.got.tgz:4693.got - 2010.06.03 17:35:07.
