data_PCOD9530767
_publ_section_title
;
Structure prediction by ZEFSAII (Michael W. Deem and Ramdas Pophale) SiO2 
 PCOD9530767
Probable space group: I B C A 
;
_chemical_formula_sum "Si O2"
_cell_formula_units_Z 112
_cell_length_a 18.140366
_cell_length_b 10.673757
_cell_length_c 25.321160
_cell_angle_alpha 90.000000
_cell_angle_beta 90.000000
_cell_angle_gamma 90.000000
_cell_volume 4902.831345
_symmetry_space_group_name_H-M "I B C A "
_symmetry_group_IT_number 73
_symmetry_cell_setting 'orthorhombic'
loop_
_space_group_symop_operation_xyz
x,y,z
-x,1/2-y,z
x,-y,1/2-z
1/2-x,y,-z
-x,-y,-z
x,1/2+y,-z
-x,y,1/2+z
1/2+x,-y,z
1/2+x,1/2+y,1/2+z
1/2-x,-y,1/2+z
1/2+x,1/2-y,-z
-x,1/2+y,1/2-z
1/2-x,1/2-y,1/2-z
1/2+x,y,1/2-z
1/2-x,1/2+y,z
x,1/2-y,1/2+z
loop_
_atom_site_type_symbol
_atom_site_label
_atom_site_fract_x
_atom_site_fract_y
_atom_site_fract_z
Si Si1 0.283393 0.788565 0.804815
Si Si2 0.323916 0.537957 0.965495
Si Si3 0.340575 0.280686 0.993925
Si Si4 0.400815 0.834729 0.616156
Si Si5 0.064216 0.327534 0.296430
Si Si6 0.242009 0.036526 0.138991
Si Si7 0.053718 0.103051 0.674146
O O1 0.250000 0.750000 0.750000
O O2 0.343805 0.946789 0.624711
O O3 0.369730 0.770203 0.796303
O O4 0.263381 0.677868 0.845560
O O5 0.367497 0.424160 0.992496
O O6 0.292651 0.495666 0.909543
O O7 0.250000 0.558905 0.000000
O O8 0.359868 0.675238 0.962846
O O9 0.481874 0.117314 0.864382
O O10 0.250000 0.297807 0.000000
O O11 0.376646 0.782426 0.558528
O O12 0.392314 0.711706 0.653358
O O13 0.081050 0.459933 0.324546
O O14 0.041133 0.363899 0.236075
O O15 0.000000 0.250000 0.323414
O O16 0.242991 0.927063 0.181439
#
# Coordination Sequence:
#
# PCOD9530767 Si02
#       7
#    16  16  16  16  16  16  16
#     4  12  29  42  66 104 151 188 237 306 352 431
#     4  10  21  38  62 104 130 180 217 288 361 437
#     4  10  20  37  66  96 139 165 220 289 357 428
#     4  11  20  42  66 103 134 175 242 282 362 425
#     4  11  23  46  65  94 143 195 248 290 351 421
#     4  12  25  41  69 101 148 183 234 293 373 420
#     4  10  24  38  73  95 133 197 242 292 344 438
#
# _framework density 22.843944
#
# number of rings (size 3 to 8) (size 9 to 14) (size 15 to 20)
#    0.000    1.143    4.286    3.000   10.000    0.000 
#    0.000    0.000    0.000    3.429    3.714    0.000 
#    0.000    0.000    0.000    0.000    0.000    0.000 
#
# Total GULP energy -312008.398478 kJ/mol
# GULP energy per Si atom -5571.578544 kJ/mol
# Density = 2.279195 g / cm^3
# Si number density = 22.843944 Si / 1000 Ang^3
#
#
#
# Elastic Constant Matrix: (Units=GPa)
#
#
# Indices 1 2 3 4 5 6 
#
# 1 57.1246 -4.6479 6.6410 0.0000 0.0000 0.0000
# 2 -4.6479 111.4832 7.8988 0.0000 0.0000 0.0000
# 3 6.6410 7.8988 61.7221 0.0000 0.0000 0.0000
# 4 0.0000 0.0000 0.0000 37.5559 0.0000 0.0000
# 5 0.0000 0.0000 0.0000 0.0000 36.0784 0.0000
# 6 0.0000 0.0000 0.0000 0.0000 0.0000 25.2260
#
#
#
# Elastic Compliance Matrix: (Units=1/GPa)
#
#
# Indices 1 2 3 4 5 6 
#
# 1 0.017814 0.000887 -0.002030 0.000000 0.000000 0.000000
# 2 0.000887 0.009096 -0.001259 0.000000 0.000000 0.000000
# 3 -0.002030 -0.001259 0.016581 0.000000 0.000000 0.000000
# 4 0.000000 0.000000 0.000000 0.026627 0.000000 0.000000
# 5 0.000000 0.000000 0.000000 0.000000 0.027717 0.000000
# 6 0.000000 0.000000 0.000000 0.000000 0.000000 0.039642
#
#
# Mechanical properties :
#
#
# Convention : Reuss Voigt Hill
#
# Bulk Modulus (GPa) = 25.84979 27.79042 26.82011
# Shear Modulus (GPa) = 32.22098 34.46791 33.34444
#
# Velocity S-wave (km/s) = 3.75971 3.88860 3.82470
# Velocity P-wave (km/s) = 5.49433 5.68800 5.59200
#
# Compressibility (1/GPa) = 0.03868503
#
# Stress axis : x y z
#
# Youngs Moduli (GPa) = 56.13646 109.93653 60.30907
#
# Poissons Ratio (x) = -0.09746 0.12243
# Poissons Ratio (y) = -0.04977 0.07596
# Poissons Ratio (z) = 0.11396 0.13846
#
# Static dielectric constant tensor:
#      x y z
#    x 1.887180 0.000000 0.000000 
#    y 0.000000 1.984700 0.000000 
#    z 0.000000 0.000000 1.904350 
# 
# From -- ./inp_files/32747.got.cif
#   From: 2010.05.17/outbox.cif.g08.bks.cpg/sg73_17_cif.got.tgz:32747.got - 2010.06.03 17:35:07.
