data_PCOD9530052
_publ_section_title
;
Structure prediction by ZEFSAII (Michael W. Deem and Ramdas Pophale) SiO2 
 PCOD9530052
Probable space group: I B C A 
;
_chemical_formula_sum "Si O2"
_cell_formula_units_Z 120
_cell_length_a 23.415992
_cell_length_b 8.617258
_cell_length_c 30.406646
_cell_angle_alpha 90.000000
_cell_angle_beta 90.000000
_cell_angle_gamma 90.000000
_cell_volume 6135.503030
_symmetry_space_group_name_H-M "I B C A "
_symmetry_group_IT_number 73
_symmetry_cell_setting 'orthorhombic'
loop_
_space_group_symop_operation_xyz
x,y,z
-x,1/2-y,z
x,-y,1/2-z
1/2-x,y,-z
-x,-y,-z
x,1/2+y,-z
-x,y,1/2+z
1/2+x,-y,z
1/2+x,1/2+y,1/2+z
1/2-x,-y,1/2+z
1/2+x,1/2-y,-z
-x,1/2+y,1/2-z
1/2-x,1/2-y,1/2-z
1/2+x,y,1/2-z
1/2-x,1/2+y,z
x,1/2-y,1/2+z
loop_
_atom_site_type_symbol
_atom_site_label
_atom_site_fract_x
_atom_site_fract_y
_atom_site_fract_z
Si Si1 0.923103 0.018098 0.371883
Si Si2 0.897522 0.913937 0.533306
Si Si3 0.000000 0.250000 0.915557
Si Si4 0.797331 0.151896 0.722505
Si Si5 0.360046 0.081840 0.295982
Si Si6 0.180405 0.267471 0.404942
Si Si7 0.746482 0.005322 0.860356
Si Si8 0.069086 0.767040 0.944718
O O1 0.874934 0.145979 0.384851
O O2 0.980035 0.105296 0.386313
O O3 0.914843 0.979809 0.320988
O O4 0.917687 0.857785 0.399358
O O5 0.950196 0.817845 0.554102
O O6 0.841653 0.826184 0.552494
O O7 0.905917 0.884690 0.481601
O O8 0.904079 0.095003 0.547338
O O9 0.750000 0.250000 0.750000
O O10 0.856536 0.240241 0.716676
O O11 0.775647 0.108373 0.674390
O O12 0.805573 0.000000 0.750000
O O13 0.347565 0.000000 0.250000
O O14 0.308487 0.060306 0.331587
O O15 0.225611 0.409655 0.403347
O O16 0.209875 0.139028 0.373931
O O17 0.000000 0.750000 0.948903
#
# Coordination Sequence:
#
# PCOD9530052 Si02
#       8
#    16  16   8  16  16  16  16  16
#     4  10  24  39  63  96 126 159 213 263 326 382
#     4  11  22  37  67  98 128 158 207 260 322 369
#     4  10  18  42  62  94 124 160 196 262 322 380
#     4  12  19  31  56  86 118 162 212 264 309 349
#     4  11  22  38  59  90 122 165 212 267 307 369
#     4  10  23  35  59  93 128 170 206 259 308 370
#     4  11  19  36  56  85 129 169 210 252 305 360
#     4  12  22  41  69  95 127 159 206 274 321 377
#
# _framework density 19.558298000000001
#
# number of rings (size 3 to 8) (size 9 to 14) (size 15 to 20)
#    0.000    1.067    6.000    2.000    3.733    0.000 
#    0.000    0.000    1.467   16.800    0.000    0.000 
#    0.000    0.000    0.000    0.000    0.000    0.000 
#
# Total GULP energy -334192.166698 kJ/mol
# GULP energy per Si atom -5569.869445 kJ/mol
# Density = 1.951378 g / cm^3
# Si number density = 19.558298 Si / 1000 Ang^3
#
#
#
# Elastic Constant Matrix: (Units=GPa)
#
#
# Indices 1 2 3 4 5 6 
#
# 1 22.4558 6.2765 20.3596 0.0000 0.0000 0.0000
# 2 6.2765 104.1997 20.4428 0.0000 0.0000 0.0000
# 3 20.3596 20.4428 58.2146 0.0000 0.0000 0.0000
# 4 0.0000 0.0000 0.0000 29.6293 0.0000 0.0000
# 5 0.0000 0.0000 0.0000 0.0000 17.5347 0.0000
# 6 0.0000 0.0000 0.0000 0.0000 0.0000 22.8062
#
#
#
# Elastic Compliance Matrix: (Units=1/GPa)
#
#
# Indices 1 2 3 4 5 6 
#
# 1 0.065242 0.000587 -0.023023 0.000000 0.000000 0.000000
# 2 0.000587 0.010312 -0.003827 0.000000 0.000000 0.000000
# 3 -0.023023 -0.003827 0.026574 0.000000 0.000000 0.000000
# 4 0.000000 0.000000 0.000000 0.033750 0.000000 0.000000
# 5 0.000000 0.000000 0.000000 0.000000 0.057030 0.000000
# 6 0.000000 0.000000 0.000000 0.000000 0.000000 0.043848
#
#
# Mechanical properties :
#
#
# Convention : Reuss Voigt Hill
#
# Bulk Modulus (GPa) = 20.16047 31.00308 25.58177
# Shear Modulus (GPa) = 16.34969 23.18012 19.76491
#
# Velocity S-wave (km/s) = 2.89441 3.44638 3.18239
# Velocity P-wave (km/s) = 4.63685 5.63230 5.15864
#
# Compressibility (1/GPa) = 0.04960203
#
# Stress axis : x y z
#
# Youngs Moduli (GPa) = 15.32752 96.97131 37.63124
#
# Poissons Ratio (x) = -0.05693 0.86640
# Poissons Ratio (y) = -0.00900 0.14400
# Poissons Ratio (z) = 0.35289 0.37107
#
# Static dielectric constant tensor:
#      x y z
#    x 1.763390 0.000000 0.000000 
#    y 0.000000 1.747170 0.000000 
#    z 0.000000 0.000000 1.556170 
# 
# From -- ./inp_files/33007.got.cif
#   From: 2010.05.17/outbox.cif.g08.bks.cpg/sg73_17_cif.got.tgz:33007.got - 2010.06.03 17:35:07.
