data_PCOD9530670
_publ_section_title
;
Structure prediction by ZEFSAII (Michael W. Deem and Ramdas Pophale) SiO2 
 PCOD9530670
Probable space group: I B C A 
;
_chemical_formula_sum "Si O2"
_cell_formula_units_Z 120
_cell_length_a 20.028240
_cell_length_b 24.357145
_cell_length_c 10.791118
_cell_angle_alpha 90.000000
_cell_angle_beta 90.000000
_cell_angle_gamma 90.000000
_cell_volume 5264.239142
_symmetry_space_group_name_H-M "I B C A "
_symmetry_group_IT_number 73
_symmetry_cell_setting 'orthorhombic'
loop_
_space_group_symop_operation_xyz
x,y,z
-x,1/2-y,z
x,-y,1/2-z
1/2-x,y,-z
-x,-y,-z
x,1/2+y,-z
-x,y,1/2+z
1/2+x,-y,z
1/2+x,1/2+y,1/2+z
1/2-x,-y,1/2+z
1/2+x,1/2-y,-z
-x,1/2+y,1/2-z
1/2-x,1/2-y,1/2-z
1/2+x,y,1/2-z
1/2-x,1/2+y,z
x,1/2-y,1/2+z
loop_
_atom_site_type_symbol
_atom_site_label
_atom_site_fract_x
_atom_site_fract_y
_atom_site_fract_z
Si Si1 0.311514 0.394701 0.235885
Si Si2 0.750000 0.599458 0.000000
Si Si3 0.356350 0.269487 0.215962
Si Si4 0.383079 0.625220 0.618287
Si Si5 0.327576 0.932071 0.519416
Si Si6 0.441246 0.004783 0.396217
Si Si7 0.072589 0.767883 0.964664
Si Si8 0.317881 0.159635 0.149360
O O1 0.341957 0.334543 0.206351
O O2 0.348030 0.431899 0.336420
O O3 0.242767 0.377723 0.303018
O O4 0.290340 0.427550 0.112478
O O5 0.691996 0.633714 0.066226
O O6 0.378182 0.254878 0.356513
O O7 0.302015 0.223460 0.171187
O O8 0.409062 0.254743 0.106230
O O9 0.406897 0.564336 0.598762
O O10 0.428028 0.666698 0.544678
O O11 0.378973 0.643879 0.760404
O O12 0.250000 0.951358 0.500000
O O13 0.380880 0.963424 0.434273
O O14 0.331364 0.866776 0.483182
O O15 0.462054 0.000000 0.250000
O O16 0.500000 0.000000 0.500000
O O17 0.000000 0.750000 0.929378
#
# Coordination Sequence:
#
# PCOD9530670 Si02
#       8
#    16   8  16  16  16  16  16  16
#     4  10  20  36  63 101 141 177 221 289 352 438
#     4  10  20  40  66 104 142 176 232 294 366 418
#     4  11  21  38  63  95 135 183 231 278 355 422
#     4  10  22  43  68  96 137 181 227 297 360 427
#     4  10  22  44  72 106 138 183 243 302 375 434
#     4  12  28  51  75 106 142 192 246 307 375 438
#     4  11  24  42  61  95 132 182 231 280 343 423
#     4   9  19  37  64  97 137 174 223 286 355 421
#
# _framework density 22.795317000000001
#
# number of rings (size 3 to 8) (size 9 to 14) (size 15 to 20)
#    0.000    1.600    2.667    1.600    0.933    3.200 
#    6.000    0.667    0.000    0.000    0.000    0.000 
#    0.000    0.000    0.000    0.000    0.000    0.000 
#
# Total GULP energy -334112.160286 kJ/mol
# GULP energy per Si atom -5568.536005 kJ/mol
# Density = 2.274343 g / cm^3
# Si number density = 22.795317 Si / 1000 Ang^3
#
#
#
# Elastic Constant Matrix: (Units=GPa)
#
#
# Indices 1 2 3 4 5 6 
#
# 1 55.3500 23.5902 24.9377 0.0000 0.0000 0.0000
# 2 23.5902 102.9375 33.0583 0.0000 0.0000 0.0000
# 3 24.9377 33.0583 164.3795 0.0000 0.0000 0.0000
# 4 0.0000 0.0000 0.0000 20.1084 0.0000 0.0000
# 5 0.0000 0.0000 0.0000 0.0000 30.0321 0.0000
# 6 0.0000 0.0000 0.0000 0.0000 0.0000 10.6412
#
#
#
# Elastic Compliance Matrix: (Units=1/GPa)
#
#
# Indices 1 2 3 4 5 6 
#
# 1 0.020840 -0.004020 -0.002353 0.000000 0.000000 0.000000
# 2 -0.004020 0.011161 -0.001635 0.000000 0.000000 0.000000
# 3 -0.002353 -0.001635 0.006769 0.000000 0.000000 0.000000
# 4 0.000000 0.000000 0.000000 0.049730 0.000000 0.000000
# 5 0.000000 0.000000 0.000000 0.000000 0.033298 0.000000
# 6 0.000000 0.000000 0.000000 0.000000 0.000000 0.093974
#
#
# Mechanical properties :
#
#
# Convention : Reuss Voigt Hill
#
# Bulk Modulus (GPa) = 43.94750 53.98216 48.96483
# Shear Modulus (GPa) = 20.88782 28.22839 24.55810
#
# Velocity S-wave (km/s) = 3.03036 3.52283 3.28583
# Velocity P-wave (km/s) = 5.61829 6.34663 5.99353
#
# Compressibility (1/GPa) = 0.02275442
#
# Stress axis : x y z
#
# Youngs Moduli (GPa) = 47.98352 89.59815 147.72753
#
# Poissons Ratio (x) = 0.36021 0.34762
# Poissons Ratio (y) = 0.19291 0.24148
# Poissons Ratio (z) = 0.11291 0.14646
#
# Static dielectric constant tensor:
#      x y z
#    x 1.870940 0.000000 0.000000 
#    y 0.000000 1.911080 0.000000 
#    z 0.000000 0.000000 1.969180 
# 
# From -- ./inp_files/13100.got.cif
#   From: 2010.05.17/outbox.cif.g08.bks.cpg/sg73_7_cif.got.tgz:13100.got - 2010.06.03 17:35:07.
