data_PCOD9530357
_publ_section_title
;
Structure prediction by ZEFSAII (Michael W. Deem and Ramdas Pophale) SiO2 
 PCOD9530357
Probable space group: I B C A 
;
_chemical_formula_sum "Si O2"
_cell_formula_units_Z 104
_cell_length_a 20.493889
_cell_length_b 14.606359
_cell_length_c 17.117174
_cell_angle_alpha 90.000000
_cell_angle_beta 90.000000
_cell_angle_gamma 90.000000
_cell_volume 5123.873695
_symmetry_space_group_name_H-M "I B C A "
_symmetry_group_IT_number 73
_symmetry_cell_setting 'orthorhombic'
loop_
_space_group_symop_operation_xyz
x,y,z
-x,1/2-y,z
x,-y,1/2-z
1/2-x,y,-z
-x,-y,-z
x,1/2+y,-z
-x,y,1/2+z
1/2+x,-y,z
1/2+x,1/2+y,1/2+z
1/2-x,-y,1/2+z
1/2+x,1/2-y,-z
-x,1/2+y,1/2-z
1/2-x,1/2-y,1/2-z
1/2+x,y,1/2-z
1/2-x,1/2+y,z
x,1/2-y,1/2+z
loop_
_atom_site_type_symbol
_atom_site_label
_atom_site_fract_x
_atom_site_fract_y
_atom_site_fract_z
Si Si1 0.397330 0.982264 0.938567
Si Si2 0.236579 0.431537 0.593997
Si Si3 0.302938 0.257730 0.932265
Si Si4 0.049939 0.500000 0.250000
Si Si5 0.353837 0.946380 0.116718
Si Si6 0.443362 0.675080 0.023448
Si Si7 0.994483 0.352499 0.360363
O O1 0.429746 0.892732 0.901453
O O2 0.328912 0.009004 0.898657
O O3 0.441657 0.075284 0.934298
O O4 0.383575 0.962275 0.029981
O O5 0.250000 0.428247 0.500000
O O6 0.224517 0.327152 0.617332
O O7 0.299228 0.476883 0.631104
O O8 0.318361 0.349124 0.886283
O O9 0.372220 0.219938 0.965394
O O10 0.250000 0.278319 0.000000
O O11 0.093187 0.546655 0.316763
O O12 0.009214 0.423040 0.293018
O O13 0.500000 0.750000 0.044113
O O14 0.454713 0.650210 0.932711
O O15 0.000000 0.250000 0.329238
#
# Coordination Sequence:
#
# PCOD9530357 Si02
#       7
#    16  16  16   8  16  16  16
#     4  10  19  39  69  93 119 156 217 266 311 365
#     4   8  18  36  62  95 122 145 200 272 315 359
#     4  10  20  35  64  98 116 155 209 268 309 368
#     4  12  28  42  58  88 136 172 204 250 324 388
#     4  11  21  40  62  92 124 165 206 261 316 372
#     4  10  20  34  65 102 124 150 204 273 322 360
#     4  11  24  43  61  89 125 171 207 263 314 372
#
# _framework density 20.297143999999999
#
# number of rings (size 3 to 8) (size 9 to 14) (size 15 to 20)
#    0.000    1.846    1.538    4.615    2.154    0.000 
#    5.538    2.308    0.000    0.000    0.000    0.000 
#    0.000    0.000    0.000    0.000    0.000    0.000 
#
# Total GULP energy -290298.285818 kJ/mol
# GULP energy per Si atom -5582.659343 kJ/mol
# Density = 2.025095 g / cm^3
# Si number density = 20.297144 Si / 1000 Ang^3
#
#
#
# Elastic Constant Matrix: (Units=GPa)
#
#
# Indices 1 2 3 4 5 6 
#
# 1 80.8721 47.4882 22.4026 0.0000 0.0000 0.0000
# 2 47.4882 145.3447 16.8597 0.0000 0.0000 0.0000
# 3 22.4026 16.8597 24.3467 0.0000 0.0000 0.0000
# 4 0.0000 0.0000 0.0000 10.9602 0.0000 0.0000
# 5 0.0000 0.0000 0.0000 0.0000 4.8867 0.0000
# 6 0.0000 0.0000 0.0000 0.0000 0.0000 16.8107
#
#
#
# Elastic Compliance Matrix: (Units=1/GPa)
#
#
# Indices 1 2 3 4 5 6 
#
# 1 0.019008 -0.004547 -0.014341 0.000000 0.000000 0.000000
# 2 -0.004547 0.008569 -0.001750 0.000000 0.000000 0.000000
# 3 -0.014341 -0.001750 0.055481 0.000000 0.000000 0.000000
# 4 0.000000 0.000000 0.000000 0.091239 0.000000 0.000000
# 5 0.000000 0.000000 0.000000 0.000000 0.204636 0.000000
# 6 0.000000 0.000000 0.000000 0.000000 0.000000 0.059486
#
#
# Mechanical properties :
#
#
# Convention : Reuss Voigt Hill
#
# Bulk Modulus (GPa) = 23.93405 47.11829 35.52617
# Shear Modulus (GPa) = 10.12919 17.45239 13.79079
#
# Velocity S-wave (km/s) = 2.23635 2.93549 2.60944
# Velocity P-wave (km/s) = 4.29951 5.89526 5.15945
#
# Compressibility (1/GPa) = 0.04178148
#
# Stress axis : x y z
#
# Youngs Moduli (GPa) = 52.60986 116.70294 18.02410
#
# Poissons Ratio (x) = 0.53063 0.25849
# Poissons Ratio (y) = 0.23921 0.03154
# Poissons Ratio (z) = 0.75450 0.20423
#
# Static dielectric constant tensor:
#      x y z
#    x 1.739610 0.000000 0.000000 
#    y 0.000000 1.773800 0.000000 
#    z 0.000000 0.000000 1.676590 
# 
# From -- ./inp_files/23201.got.cif
#   From: 2010.05.17/outbox.cif.g08.bks.cpg/sg73_12_cif.got.tgz:23201.got - 2010.06.03 17:35:07.
