data_PCOD9530503
_publ_section_title
;
Structure prediction by ZEFSAII (Michael W. Deem and Ramdas Pophale) SiO2 
 PCOD9530503
Probable space group: I B C A 
;
_chemical_formula_sum "Si O2"
_cell_formula_units_Z 80
_cell_length_a 32.849622
_cell_length_b 5.069631
_cell_length_c 23.696533
_cell_angle_alpha 90.000000
_cell_angle_beta 90.000000
_cell_angle_gamma 90.000000
_cell_volume 3946.313072
_symmetry_space_group_name_H-M "I B C A "
_symmetry_group_IT_number 73
_symmetry_cell_setting 'orthorhombic'
loop_
_space_group_symop_operation_xyz
x,y,z
-x,1/2-y,z
x,-y,1/2-z
1/2-x,y,-z
-x,-y,-z
x,1/2+y,-z
-x,y,1/2+z
1/2+x,-y,z
1/2+x,1/2+y,1/2+z
1/2-x,-y,1/2+z
1/2+x,1/2-y,-z
-x,1/2+y,1/2-z
1/2-x,1/2-y,1/2-z
1/2+x,y,1/2-z
1/2-x,1/2+y,z
x,1/2-y,1/2+z
loop_
_atom_site_type_symbol
_atom_site_label
_atom_site_fract_x
_atom_site_fract_y
_atom_site_fract_z
Si Si1 0.619917 0.998377 0.651786
Si Si2 0.861988 0.255433 0.468993
Si Si3 0.777067 0.383753 0.421466
Si Si4 0.830629 0.028478 0.812863
Si Si5 0.973865 0.503062 0.818161
O O1 0.625907 0.116129 0.589095
O O2 0.636832 0.234082 0.690972
O O3 0.572183 0.968078 0.661529
O O4 0.646228 0.734345 0.664192
O O5 0.875722 0.552593 0.482383
O O6 0.813449 0.298957 0.462681
O O7 0.758673 0.673037 0.428224
O O8 0.797295 0.384565 0.358968
O O9 0.813382 0.000000 0.750000
O O10 0.972034 0.500000 0.750000
O O11 0.000000 0.250000 0.836192
O O12 0.000000 0.750000 0.837061
#
# Coordination Sequence:
#
# PCOD9530503 Si02
#       5
#    16  16  16  16  16
#     4  11  22  39  60  86 120 154 199 246 287 351
#     4  11  23  40  61  82 107 149 198 245 296 340
#     4  11  23  38  56  84 115 144 189 242 292 347
#     4  11  22  37  59  85 118 161 197 232 289 359
#     4  10  20  34  57  89 121 153 187 230 290 351
#
# _framework density 20.272086000000002
#
# number of rings (size 3 to 8) (size 9 to 14) (size 15 to 20)
#    0.000    1.200    0.000    9.000    0.000    4.800 
#    0.000    0.000    0.000    3.600    0.000    0.000 
#    0.000    0.000    0.000    0.000    0.000    0.000 
#
# Total GULP energy -223404.683652 kJ/mol
# GULP energy per Si atom -5585.117091 kJ/mol
# Density = 2.022595 g / cm^3
# Si number density = 20.272086 Si / 1000 Ang^3
#
#
#
# Elastic Constant Matrix: (Units=GPa)
#
#
# Indices 1 2 3 4 5 6 
#
# 1 56.9162 25.1194 6.4214 0.0000 0.0000 0.0000
# 2 25.1194 135.4362 34.0271 0.0000 0.0000 0.0000
# 3 6.4214 34.0271 56.9221 0.0000 0.0000 0.0000
# 4 0.0000 0.0000 0.0000 62.7158 0.0000 0.0000
# 5 0.0000 0.0000 0.0000 0.0000 20.8618 0.0000
# 6 0.0000 0.0000 0.0000 0.0000 0.0000 19.9815
#
#
#
# Elastic Compliance Matrix: (Units=1/GPa)
#
#
# Indices 1 2 3 4 5 6 
#
# 1 0.019136 -0.003538 -0.000044 0.000000 0.000000 0.000000
# 2 -0.003538 0.009343 -0.005186 0.000000 0.000000 0.000000
# 3 -0.000044 -0.005186 0.020673 0.000000 0.000000 0.000000
# 4 0.000000 0.000000 0.000000 0.015945 0.000000 0.000000
# 5 0.000000 0.000000 0.000000 0.000000 0.047934 0.000000
# 6 0.000000 0.000000 0.000000 0.000000 0.000000 0.050046
#
#
# Mechanical properties :
#
#
# Convention : Reuss Voigt Hill
#
# Bulk Modulus (GPa) = 31.62924 42.26781 36.94853
# Shear Modulus (GPa) = 26.15728 32.95892 29.55810
#
# Velocity S-wave (km/s) = 3.59599 4.03653 3.82261
# Velocity P-wave (km/s) = 5.73391 6.52842 6.14402
#
# Compressibility (1/GPa) = 0.03161632
#
# Stress axis : x y z
#
# Youngs Moduli (GPa) = 52.25705 107.03594 48.37283
#
# Poissons Ratio (x) = 0.37872 0.00211
# Poissons Ratio (y) = 0.18490 0.25085
# Poissons Ratio (z) = 0.00228 0.55506
#
# Static dielectric constant tensor:
#      x y z
#    x 1.627020 0.000000 0.000000 
#    y 0.000000 1.720850 0.000000 
#    z 0.000000 0.000000 1.768560 
# 
# From -- ./inp_files/28056.got.cif
#   From: 2010.05.17/outbox.cif.g08.bks.cpg/sg73_15_cif.got.tgz:28056.got - 2010.06.03 17:35:07.
