data_PCOD9530527
_publ_section_title
;
Structure prediction by ZEFSAII (Michael W. Deem and Ramdas Pophale) SiO2 
 PCOD9530527
Probable space group: I B C A 
;
_chemical_formula_sum "Si O2"
_cell_formula_units_Z 104
_cell_length_a 14.880781
_cell_length_b 18.260524
_cell_length_c 19.768300
_cell_angle_alpha 90.000000
_cell_angle_beta 90.000000
_cell_angle_gamma 90.000000
_cell_volume 5371.657132
_symmetry_space_group_name_H-M "I B C A "
_symmetry_group_IT_number 73
_symmetry_cell_setting 'orthorhombic'
loop_
_space_group_symop_operation_xyz
x,y,z
-x,1/2-y,z
x,-y,1/2-z
1/2-x,y,-z
-x,-y,-z
x,1/2+y,-z
-x,y,1/2+z
1/2+x,-y,z
1/2+x,1/2+y,1/2+z
1/2-x,-y,1/2+z
1/2+x,1/2-y,-z
-x,1/2+y,1/2-z
1/2-x,1/2-y,1/2-z
1/2+x,y,1/2-z
1/2-x,1/2+y,z
x,1/2-y,1/2+z
loop_
_atom_site_type_symbol
_atom_site_label
_atom_site_fract_x
_atom_site_fract_y
_atom_site_fract_z
Si Si1 0.647577 0.883013 0.147818
Si Si2 0.129779 0.525440 0.560859
Si Si3 0.750000 0.355581 0.500000
Si Si4 0.425789 0.518758 0.914044
Si Si5 0.448765 0.872702 0.172363
Si Si6 0.681892 0.923908 0.787390
Si Si7 0.599645 0.755050 0.566989
O O1 0.554229 0.875982 0.187844
O O2 0.732515 0.874715 0.195851
O O3 0.638105 0.823910 0.087603
O O4 0.655174 0.963745 0.114965
O O5 0.201882 0.590313 0.554167
O O6 0.121143 0.487997 0.486690
O O7 0.026952 0.549564 0.576742
O O8 0.671315 0.303893 0.472186
O O9 0.436107 0.436597 0.883992
O O10 0.368031 0.560134 0.858143
O O11 0.388740 0.888646 0.236493
O O12 0.419898 0.798470 0.136504
O O13 0.709074 0.000000 0.750000
O O14 0.500000 0.750000 0.533870
#
# Coordination Sequence:
#
# PCOD9530527 Si02
#       7
#    16  16   8  16  16  16  16
#     4  10  22  38  62  89 116 158 203 250 300 363
#     4  10  20  34  63  90 120 154 199 250 305 359
#     4  12  22  38  66  92 122 166 200 246 308 384
#     4   9  18  35  57  90 121 151 193 255 300 347
#     4   9  19  40  57  78 121 163 195 240 301 358
#     4  10  21  35  59  89 118 152 203 254 294 351
#     4  10  23  42  60  86 126 167 199 243 312 369
#
# _framework density 19.360879000000001
#
# number of rings (size 3 to 8) (size 9 to 14) (size 15 to 20)
#    0.000    2.154    1.538    0.923    4.308    5.538 
#    0.000    0.000    0.000    0.000    0.000    0.000 
#    0.000    0.000    0.000    0.000    0.000    0.000 
#
# Total GULP energy -290206.982866 kJ/mol
# GULP energy per Si atom -5580.903517 kJ/mol
# Density = 1.931681 g / cm^3
# Si number density = 19.360879 Si / 1000 Ang^3
#
#
#
# Elastic Constant Matrix: (Units=GPa)
#
#
# Indices 1 2 3 4 5 6 
#
# 1 134.5136 57.1838 47.0741 0.0000 0.0000 0.0000
# 2 57.1838 64.9191 1.7482 0.0000 0.0000 0.0000
# 3 47.0741 1.7482 56.4698 0.0000 0.0000 0.0000
# 4 0.0000 0.0000 0.0000 5.0432 0.0000 0.0000
# 5 0.0000 0.0000 0.0000 0.0000 24.0541 0.0000
# 6 0.0000 0.0000 0.0000 0.0000 0.0000 33.6514
#
#
#
# Elastic Compliance Matrix: (Units=1/GPa)
#
#
# Indices 1 2 3 4 5 6 
#
# 1 0.021099 -0.018126 -0.017027 0.000000 0.000000 0.000000
# 2 -0.018126 0.030989 0.014151 0.000000 0.000000 0.000000
# 3 -0.017027 0.014151 0.031464 0.000000 0.000000 0.000000
# 4 0.000000 0.000000 0.000000 0.198288 0.000000 0.000000
# 5 0.000000 0.000000 0.000000 0.000000 0.041573 0.000000
# 6 0.000000 0.000000 0.000000 0.000000 0.000000 0.029716
#
#
# Mechanical properties :
#
#
# Convention : Reuss Voigt Hill
#
# Bulk Modulus (GPa) = 24.06875 51.99050 38.02963
# Shear Modulus (GPa) = 12.22545 22.54285 17.38415
#
# Velocity S-wave (km/s) = 2.51560 3.41596 2.99975
# Velocity P-wave (km/s) = 4.57124 6.51690 5.62878
#
# Compressibility (1/GPa) = 0.04154764
#
# Stress axis : x y z
#
# Youngs Moduli (GPa) = 47.39651 32.26943 31.78193
#
# Poissons Ratio (x) = 0.58492 0.54115
# Poissons Ratio (y) = 0.85912 -0.44974
# Poissons Ratio (z) = 0.80702 -0.45664
#
# Static dielectric constant tensor:
#      x y z
#    x 1.719380 0.000000 0.000000 
#    y 0.000000 1.687100 0.000000 
#    z 0.000000 0.000000 1.646590 
# 
# From -- ./inp_files/23195.got.cif
#   From: 2010.05.17/outbox.cif.g08.bks.cpg/sg73_12_cif.got.tgz:23195.got - 2010.06.03 17:35:07.
