data_PCOD9530882
_publ_section_title
;
Structure prediction by ZEFSAII (Michael W. Deem and Ramdas Pophale) SiO2 
 PCOD9530882
Probable space group: I B C A 
;
_chemical_formula_sum "Si O2"
_cell_formula_units_Z 96
_cell_length_a 13.643511
_cell_length_b 16.486518
_cell_length_c 22.612533
_cell_angle_alpha 90.000000
_cell_angle_beta 90.000000
_cell_angle_gamma 90.000000
_cell_volume 5086.327265
_symmetry_space_group_name_H-M "I B C A "
_symmetry_group_IT_number 73
_symmetry_cell_setting 'orthorhombic'
loop_
_space_group_symop_operation_xyz
x,y,z
-x,1/2-y,z
x,-y,1/2-z
1/2-x,y,-z
-x,-y,-z
x,1/2+y,-z
-x,y,1/2+z
1/2+x,-y,z
1/2+x,1/2+y,1/2+z
1/2-x,-y,1/2+z
1/2+x,1/2-y,-z
-x,1/2+y,1/2-z
1/2-x,1/2-y,1/2-z
1/2+x,y,1/2-z
1/2-x,1/2+y,z
x,1/2-y,1/2+z
loop_
_atom_site_type_symbol
_atom_site_label
_atom_site_fract_x
_atom_site_fract_y
_atom_site_fract_z
Si Si1 0.598521 0.145643 0.384474
Si Si2 0.790151 0.928644 0.067972
Si Si3 0.361068 0.771855 0.018219
Si Si4 0.618254 0.907216 0.617068
Si Si5 0.287364 0.775469 0.185966
Si Si6 0.396587 0.236221 0.103626
O O1 0.692524 0.089505 0.394054
O O2 0.591553 0.197878 0.445428
O O3 0.498419 0.098946 0.373225
O O4 0.628228 0.212921 0.335900
O O5 0.864517 0.852801 0.079355
O O6 0.842582 0.007188 0.094897
O O7 0.750000 0.937600 0.000000
O O8 0.359257 0.846051 0.062815
O O9 0.250000 0.749494 0.000000
O O10 0.407821 0.790683 0.955391
O O11 0.671393 0.865587 0.673483
O O12 0.250000 0.750000 0.250000
O O13 0.194783 0.763771 0.142554
O O14 0.500000 0.250000 0.135855
#
# Coordination Sequence:
#
# PCOD9530882 Si02
#       6
#    16  16  16  16  16  16
#     4  10  20  39  59  83 124 158 195 245 305 370
#     4  11  22  38  54  94 134 156 194 253 310 376
#     4  11  16  36  57  83 118 155 191 242 304 371
#     4  11  23  35  63  89 119 160 201 248 312 369
#     4  10  22  41  63  85 113 158 214 255 292 363
#     4  11  21  36  59  84 123 160 201 251 307 365
#
# _framework density 18.874130000000001
#
# number of rings (size 3 to 8) (size 9 to 14) (size 15 to 20)
#    0.000    1.333    6.667    3.500    0.000    3.333 
#    0.000    3.333    0.000    4.000    0.000    0.000 
#    0.000    0.000    0.000    0.000    0.000    0.000 
#
# Total GULP energy -267565.279534 kJ/mol
# GULP energy per Si atom -5574.276657 kJ/mol
# Density = 1.883117 g / cm^3
# Si number density = 18.874130 Si / 1000 Ang^3
#
#
#
# Elastic Constant Matrix: (Units=GPa)
#
#
# Indices 1 2 3 4 5 6 
#
# 1 133.7232 54.4317 18.9598 0.0000 0.0000 0.0000
# 2 54.4317 88.0957 13.7539 0.0000 0.0000 0.0000
# 3 18.9598 13.7539 77.8071 0.0000 0.0000 0.0000
# 4 0.0000 0.0000 0.0000 12.3225 0.0000 0.0000
# 5 0.0000 0.0000 0.0000 0.0000 14.9589 0.0000
# 6 0.0000 0.0000 0.0000 0.0000 0.0000 30.5458
#
#
#
# Elastic Compliance Matrix: (Units=1/GPa)
#
#
# Indices 1 2 3 4 5 6 
#
# 1 0.010137 -0.006045 -0.001402 0.000000 0.000000 0.000000
# 2 -0.006045 0.015278 -0.001228 0.000000 0.000000 0.000000
# 3 -0.001402 -0.001228 0.013411 0.000000 0.000000 0.000000
# 4 0.000000 0.000000 0.000000 0.081152 0.000000 0.000000
# 5 0.000000 0.000000 0.000000 0.000000 0.066850 0.000000
# 6 0.000000 0.000000 0.000000 0.000000 0.000000 0.032738
#
#
# Mechanical properties :
#
#
# Convention : Reuss Voigt Hill
#
# Bulk Modulus (GPa) = 46.55972 52.65742 49.60857
# Shear Modulus (GPa) = 20.48563 25.73081 23.10822
#
# Velocity S-wave (km/s) = 3.29809 3.69627 3.50284
# Velocity P-wave (km/s) = 6.26301 6.79532 6.53459
#
# Compressibility (1/GPa) = 0.02147779
#
# Stress axis : x y z
#
# Youngs Moduli (GPa) = 98.64492 65.45433 74.56630
#
# Poissons Ratio (x) = 0.39565 0.10452
# Poissons Ratio (y) = 0.59628 0.09154
# Poissons Ratio (z) = 0.13827 0.08036
#
# Static dielectric constant tensor:
#      x y z
#    x 1.748080 0.000000 0.000000 
#    y 0.000000 1.673140 0.000000 
#    z 0.000000 0.000000 1.685950 
# 
# From -- ./inp_files/18633.got.cif
#   From: 2010.05.17/outbox.cif.g08.bks.cpg/sg73_10_cif.got.tgz:18633.got - 2010.06.03 17:35:07.
