data_PCOD9530846
_publ_section_title
;
Structure prediction by ZEFSAII (Michael W. Deem and Ramdas Pophale) SiO2 
 PCOD9530846
Probable space group: I B C A 
;
_chemical_formula_sum "Si O2"
_cell_formula_units_Z 104
_cell_length_a 8.134045
_cell_length_b 28.101297
_cell_length_c 20.013578
_cell_angle_alpha 90.000000
_cell_angle_beta 90.000000
_cell_angle_gamma 90.000000
_cell_volume 4574.647909
_symmetry_space_group_name_H-M "I B C A "
_symmetry_group_IT_number 73
_symmetry_cell_setting 'orthorhombic'
loop_
_space_group_symop_operation_xyz
x,y,z
-x,1/2-y,z
x,-y,1/2-z
1/2-x,y,-z
-x,-y,-z
x,1/2+y,-z
-x,y,1/2+z
1/2+x,-y,z
1/2+x,1/2+y,1/2+z
1/2-x,-y,1/2+z
1/2+x,1/2-y,-z
-x,1/2+y,1/2-z
1/2-x,1/2-y,1/2-z
1/2+x,y,1/2-z
1/2-x,1/2+y,z
x,1/2-y,1/2+z
loop_
_atom_site_type_symbol
_atom_site_label
_atom_site_fract_x
_atom_site_fract_y
_atom_site_fract_z
Si Si1 0.240908 0.472531 0.601376
Si Si2 0.494985 0.888473 0.577775
Si Si3 0.478002 0.527537 0.307776
Si Si4 0.106515 0.293781 0.649427
Si Si5 0.563273 0.178142 0.709348
Si Si6 0.750000 0.060776 0.000000
Si Si7 0.265591 0.117926 0.694488
O O1 0.417292 0.458614 0.627707
O O2 0.248130 0.521413 0.559359
O O3 0.146477 0.427946 0.572576
O O4 0.138433 0.486259 0.665962
O O5 0.416206 0.837974 0.598404
O O6 0.600551 0.902934 0.512694
O O7 0.630030 0.893492 0.638345
O O8 0.574099 0.500000 0.250000
O O9 0.373423 0.572649 0.288390
O O10 0.301570 0.290025 0.669693
O O11 0.000000 0.250000 0.620786
O O12 0.011359 0.302296 0.720603
O O13 0.400446 0.158105 0.672865
O O14 0.676721 0.135367 0.738009
#
# Coordination Sequence:
#
# PCOD9530846 Si02
#       7
#    16  16  16  16  16   8  16
#     4  12  25  41  61  92 124 168 221 257 319 376
#     4  11  24  42  61  87 118 165 213 278 310 369
#     4  12  25  35  58  90 133 166 204 254 320 391
#     4  10  20  38  64  97 130 165 209 259 323 388
#     4   9  20  34  62  90 131 169 203 248 318 390
#     4  12  24  46  66  86 122 170 230 268 314 376
#     4  10  21  37  54  87 128 164 209 250 310 382
#
# _framework density 22.733989000000001
#
# number of rings (size 3 to 8) (size 9 to 14) (size 15 to 20)
#    0.000    1.231    3.077    2.308   10.769    0.000 
#    0.000    0.000    0.000    2.769    0.000    0.000 
#    0.000    0.000    0.000    0.000    0.000    0.000 
#
# Total GULP energy -289830.291045 kJ/mol
# GULP energy per Si atom -5573.659443 kJ/mol
# Density = 2.268225 g / cm^3
# Si number density = 22.733989 Si / 1000 Ang^3
#
#
#
# Elastic Constant Matrix: (Units=GPa)
#
#
# Indices 1 2 3 4 5 6 
#
# 1 79.2181 -6.0274 -0.0550 0.0000 0.0000 0.0000
# 2 -6.0274 50.8691 -4.3141 0.0000 0.0000 0.0000
# 3 -0.0550 -4.3141 27.3597 0.0000 0.0000 0.0000
# 4 0.0000 0.0000 0.0000 -8.8434 0.0000 0.0000
# 5 0.0000 0.0000 0.0000 0.0000 27.0522 0.0000
# 6 0.0000 0.0000 0.0000 0.0000 0.0000 19.2093
#
#
#
# Elastic Compliance Matrix: (Units=1/GPa)
#
#
# Indices 1 2 3 4 5 6 
#
# 1 0.012740 0.001532 0.000267 0.000000 0.000000 0.000000
# 2 0.001532 0.020109 0.003174 0.000000 0.000000 0.000000
# 3 0.000267 0.003174 0.037051 0.000000 0.000000 0.000000
# 4 0.000000 0.000000 0.000000 -0.113079 0.000000 0.000000
# 5 0.000000 0.000000 0.000000 0.000000 0.036966 0.000000
# 6 0.000000 0.000000 0.000000 0.000000 0.000000 0.052058
#
#
# Mechanical properties :
#
#
# Convention : Reuss Voigt Hill
#
# Bulk Modulus (GPa) = 12.52395 15.18375 13.85385
# Shear Modulus (GPa) = 79.98226 18.67319 49.32773
#
# Velocity S-wave (km/s) = 5.93786 2.86908 4.66314
# Velocity P-wave (km/s) = 7.24788 4.20343 5.92455
#
# Compressibility (1/GPa) = 0.07984701
#
# Stress axis : x y z
#
# Youngs Moduli (GPa) = 78.49201 49.72890 26.98972
#
# Poissons Ratio (x) = -0.07620 -0.00721
# Poissons Ratio (y) = -0.12027 -0.08566
# Poissons Ratio (z) = -0.02097 -0.15783
#
# Static dielectric constant tensor:
#      x y z
#    x 1.919800 0.000000 0.000000 
#    y 0.000000 1.893090 0.000000 
#    z 0.000000 0.000000 1.874040 
# 
# From -- ./inp_files/24972.got.cif
#   From: 2010.05.17/outbox.cif.g08.bks.cpg/sg73_13_cif.got.tgz:24972.got - 2010.06.03 17:35:07.
