data_PCOD9530046
_publ_section_title
;
Structure prediction by ZEFSAII (Michael W. Deem and Ramdas Pophale) SiO2 
 PCOD9530046
Probable space group: I B C A 
;
_chemical_formula_sum "Si O2"
_cell_formula_units_Z 112
_cell_length_a 12.479441
_cell_length_b 29.783995
_cell_length_c 13.902674
_cell_angle_alpha 90.000000
_cell_angle_beta 90.000000
_cell_angle_gamma 90.000000
_cell_volume 5167.451649
_symmetry_space_group_name_H-M "I B C A "
_symmetry_group_IT_number 73
_symmetry_cell_setting 'orthorhombic'
loop_
_space_group_symop_operation_xyz
x,y,z
-x,1/2-y,z
x,-y,1/2-z
1/2-x,y,-z
-x,-y,-z
x,1/2+y,-z
-x,y,1/2+z
1/2+x,-y,z
1/2+x,1/2+y,1/2+z
1/2-x,-y,1/2+z
1/2+x,1/2-y,-z
-x,1/2+y,1/2-z
1/2-x,1/2-y,1/2-z
1/2+x,y,1/2-z
1/2-x,1/2+y,z
x,1/2-y,1/2+z
loop_
_atom_site_type_symbol
_atom_site_label
_atom_site_fract_x
_atom_site_fract_y
_atom_site_fract_z
Si Si1 0.587180 0.383697 0.231875
Si Si2 0.371108 0.525809 0.006116
Si Si3 0.778229 0.346829 0.115020
Si Si4 0.997978 0.385463 0.569403
Si Si5 0.518733 0.472436 0.655365
Si Si6 0.525189 0.181959 0.102579
Si Si7 0.677723 0.758339 0.909860
O O1 0.701197 0.379445 0.177105
O O2 0.589160 0.389811 0.346206
O O3 0.513475 0.423083 0.188172
O O4 0.525981 0.339107 0.197699
O O5 0.447846 0.567499 0.036457
O O6 0.387661 0.485098 0.080679
O O7 0.250000 0.540898 0.000000
O O8 0.413648 0.510962 0.902370
O O9 0.901302 0.360023 0.118830
O O10 0.748891 0.295634 0.145296
O O11 0.750000 0.349976 0.000000
O O12 0.958448 0.356369 0.478313
O O13 0.540957 0.500000 0.750000
O O14 0.427951 0.212740 0.061744
O O15 0.626501 0.212544 0.128446
O O16 0.750000 0.745428 0.000000
#
# Coordination Sequence:
#
# PCOD9530046 Si02
#       7
#    16  16  16  16  16  16  16
#     4  11  22  38  62  94 126 162 209 261 315 364
#     4  11  24  40  67  91 120 174 212 251 316 379
#     4  10  18  40  70  86 117 171 218 247 306 391
#     4  12  20  38  66  91 120 165 218 252 309 386
#     4  11  22  42  61  94 131 156 210 272 305 363
#     4  10  20  37  62  89 121 162 211 263 307 375
#     4   9  17  36  64  85 116 165 207 255 319 367
#
# _framework density 21.674126000000001
#
# number of rings (size 3 to 8) (size 9 to 14) (size 15 to 20)
#    0.000    1.429    7.143    1.286    0.000    0.571 
#    5.143    7.143    0.000    0.000    0.000    0.000 
#    0.000    0.000    0.000    0.000    0.000    0.000 
#
# Total GULP energy -312115.518702 kJ/mol
# GULP energy per Si atom -5573.491405 kJ/mol
# Density = 2.162480 g / cm^3
# Si number density = 21.674126 Si / 1000 Ang^3
#
#
#
# Elastic Constant Matrix: (Units=GPa)
#
#
# Indices 1 2 3 4 5 6 
#
# 1 37.3113 10.7810 3.8087 0.0003 -0.0001 0.0000
# 2 10.7810 54.5404 -21.8067 0.0004 -0.0001 0.0000
# 3 3.8087 -21.8067 69.6018 0.0017 -0.0002 0.0003
# 4 0.0003 0.0004 0.0017 -5.2625 -0.0004 0.0002
# 5 -0.0001 -0.0001 -0.0002 -0.0004 20.3055 0.0001
# 6 0.0000 0.0000 0.0003 0.0002 0.0001 18.8230
#
#
#
# Elastic Compliance Matrix: (Units=1/GPa)
#
#
# Indices 1 2 3 4 5 6 
#
# 1 0.029328 -0.007361 -0.003911 0.000000 0.000000 0.000000
# 2 -0.007361 0.022808 0.007549 0.000003 0.000000 0.000000
# 3 -0.003911 0.007549 0.016947 0.000006 0.000000 0.000000
# 4 0.000000 0.000003 0.000006 -0.190026 -0.000003 0.000002
# 5 0.000000 0.000000 0.000000 -0.000003 0.049248 0.000000
# 6 0.000000 0.000000 0.000000 0.000002 0.000000 0.053127
#
#
# Mechanical properties :
#
#
# Convention : Reuss Voigt Hill
#
# Bulk Modulus (GPa) = 16.22429 16.33551 16.27990
# Shear Modulus (GPa) = 530.60696 18.01791 274.31244
#
# Velocity S-wave (km/s) = 15.66342 2.88637 11.26219
# Velocity P-wave (km/s) = 18.29277 4.31989 13.29073
#
# Compressibility (1/GPa) = 0.06163597
#
# Stress axis : x y z
#
# Youngs Moduli (GPa) = 34.09744 43.84367 59.00907
#
# Poissons Ratio (x) = 0.32273 0.23079
# Poissons Ratio (y) = 0.25099 -0.44545
# Poissons Ratio (z) = 0.13336 -0.33097
#
# Static dielectric constant tensor:
#      x y z
#    x 1.789570 0.000000 0.000000 
#    y 0.000000 1.877830 0.000000 
#    z 0.000000 0.000000 1.817730 
# 
# From -- ./inp_files/17455.got.cif
#   From: 2010.05.17/outbox.cif.g08.bks.cpg/sg73_9_cif.got.tgz:17455.got - 2010.06.03 17:35:07.
