data_PCOD9530702
_publ_section_title
;
Structure prediction by ZEFSAII (Michael W. Deem and Ramdas Pophale) SiO2 
 PCOD9530702
Probable space group: I B C A 
;
_chemical_formula_sum "Si O2"
_cell_formula_units_Z 88
_cell_length_a 14.320951
_cell_length_b 14.560443
_cell_length_c 20.416579
_cell_angle_alpha 90.000000
_cell_angle_beta 90.000000
_cell_angle_gamma 90.000000
_cell_volume 4257.252614
_symmetry_space_group_name_H-M "I B C A "
_symmetry_group_IT_number 73
_symmetry_cell_setting 'orthorhombic'
loop_
_space_group_symop_operation_xyz
x,y,z
-x,1/2-y,z
x,-y,1/2-z
1/2-x,y,-z
-x,-y,-z
x,1/2+y,-z
-x,y,1/2+z
1/2+x,-y,z
1/2+x,1/2+y,1/2+z
1/2-x,-y,1/2+z
1/2+x,1/2-y,-z
-x,1/2+y,1/2-z
1/2-x,1/2-y,1/2-z
1/2+x,y,1/2-z
1/2-x,1/2+y,z
x,1/2-y,1/2+z
loop_
_atom_site_type_symbol
_atom_site_label
_atom_site_fract_x
_atom_site_fract_y
_atom_site_fract_z
Si Si1 0.887463 0.313370 0.647155
Si Si2 0.435219 0.065419 0.045901
Si Si3 0.082990 0.554705 0.650893
Si Si4 0.262407 0.437059 0.930831
Si Si5 0.580221 0.639369 0.716620
Si Si6 0.000000 0.250000 0.022532
O O1 0.809029 0.386057 0.631041
O O2 0.859871 0.217480 0.680465
O O3 0.972642 0.345356 0.693458
O O4 0.928764 0.295739 0.574346
O O5 0.481995 0.059678 0.117480
O O6 0.331003 0.022859 0.051634
O O7 0.450019 0.168994 0.018534
O O8 0.500000 0.000000 0.000000
O O9 0.157463 0.551289 0.593099
O O10 0.101160 0.459319 0.687162
O O11 0.091198 0.633816 0.705542
O O12 0.250000 0.384571 0.000000
#
# Coordination Sequence:
#
# PCOD9530702 Si02
#       6
#    16  16  16  16  16   8
#     4  10  20  42  67  93 123 181 211 269 328 386
#     4  12  21  43  64  93 132 168 212 272 327 392
#     4  11  22  42  62  93 128 171 210 272 317 388
#     4  12  24  39  67  98 133 167 215 268 337 389
#     4   9  21  42  66  84 130 170 217 263 321 379
#     4  10  20  36  70  90 126 172 210 260 334 384
#
# _framework density 20.670607
#
# number of rings (size 3 to 8) (size 9 to 14) (size 15 to 20)
#    0.000    1.455    5.455    1.091    0.000    2.182 
#   13.091    0.000    0.000    0.000    0.000    0.000 
#    0.000    0.000    0.000    0.000    0.000    0.000 
#
# Total GULP energy -245080.071478 kJ/mol
# GULP energy per Si atom -5570.001625 kJ/mol
# Density = 2.062356 g / cm^3
# Si number density = 20.670607 Si / 1000 Ang^3
#
#
#
# Elastic Constant Matrix: (Units=GPa)
#
#
# Indices 1 2 3 4 5 6 
#
# 1 71.9787 10.2627 23.8122 0.0000 0.0000 0.0000
# 2 10.2627 67.1054 24.4318 0.0000 0.0000 0.0000
# 3 23.8122 24.4318 112.8197 0.0000 0.0000 0.0000
# 4 0.0000 0.0000 0.0000 31.6013 0.0000 0.0000
# 5 0.0000 0.0000 0.0000 0.0000 -22.3527 0.0000
# 6 0.0000 0.0000 0.0000 0.0000 0.0000 7.3783
#
#
#
# Elastic Compliance Matrix: (Units=1/GPa)
#
#
# Indices 1 2 3 4 5 6 
#
# 1 0.015031 -0.001242 -0.002904 0.000000 0.000000 0.000000
# 2 -0.001242 0.016280 -0.003263 0.000000 0.000000 0.000000
# 3 -0.002904 -0.003263 0.010183 0.000000 0.000000 0.000000
# 4 0.000000 0.000000 0.000000 0.031644 0.000000 0.000000
# 5 0.000000 0.000000 0.000000 0.000000 -0.044737 0.000000
# 6 0.000000 0.000000 0.000000 0.000000 0.000000 0.135532
#
#
# Mechanical properties :
#
#
# Convention : Reuss Voigt Hill
#
# Bulk Modulus (GPa) = 37.48598 40.99079 39.23839
# Shear Modulus (GPa) = 26.64645 16.21853 21.43249
#
# Velocity S-wave (km/s) = 3.59430 2.80414 3.22352
# Velocity P-wave (km/s) = 5.94975 5.50979 5.73399
#
# Compressibility (1/GPa) = 0.02667664
#
# Stress axis : x y z
#
# Youngs Moduli (GPa) = 66.53098 61.42513 98.20040
#
# Poissons Ratio (x) = 0.07626 0.28513
# Poissons Ratio (y) = 0.08260 0.32047
# Poissons Ratio (z) = 0.19318 0.20046
#
# Static dielectric constant tensor:
#      x y z
#    x 1.797120 0.000000 0.000000 
#    y 0.000000 1.835570 0.000000 
#    z 0.000000 0.000000 1.924320 
# 
# From -- ./inp_files/25940.got.cif
#   From: 2010.05.17/outbox.cif.g08.bks.cpg/sg73_13_cif.got.tgz:25940.got - 2010.06.03 17:35:07.
