data_PCOD9530630
_publ_section_title
;
Structure prediction by ZEFSAII (Michael W. Deem and Ramdas Pophale) SiO2 
 PCOD9530630
Probable space group: I B C A 
;
_chemical_formula_sum "Si O2"
_cell_formula_units_Z 120
_cell_length_a 13.673766
_cell_length_b 19.001572
_cell_length_c 22.260150
_cell_angle_alpha 90.000000
_cell_angle_beta 90.000000
_cell_angle_gamma 90.000000
_cell_volume 5783.700048
_symmetry_space_group_name_H-M "I B C A "
_symmetry_group_IT_number 73
_symmetry_cell_setting 'orthorhombic'
loop_
_space_group_symop_operation_xyz
x,y,z
-x,1/2-y,z
x,-y,1/2-z
1/2-x,y,-z
-x,-y,-z
x,1/2+y,-z
-x,y,1/2+z
1/2+x,-y,z
1/2+x,1/2+y,1/2+z
1/2-x,-y,1/2+z
1/2+x,1/2-y,-z
-x,1/2+y,1/2-z
1/2-x,1/2-y,1/2-z
1/2+x,y,1/2-z
1/2-x,1/2+y,z
x,1/2-y,1/2+z
loop_
_atom_site_type_symbol
_atom_site_label
_atom_site_fract_x
_atom_site_fract_y
_atom_site_fract_z
Si Si1 0.888026 0.074497 0.037846
Si Si2 0.387536 0.226280 0.431292
Si Si3 0.447990 0.511691 0.413435
Si Si4 0.128846 0.389621 0.391672
Si Si5 0.250000 0.836012 0.500000
Si Si6 0.754391 0.517293 0.859335
Si Si7 0.387355 0.735046 0.803513
Si Si8 0.212218 0.664419 0.310758
O O1 0.881981 0.157166 0.026390
O O2 0.798037 0.047241 0.077409
O O3 0.901782 0.030709 0.977676
O O4 0.984730 0.057128 0.077855
O O5 0.500000 0.250000 0.425399
O O6 0.321048 0.287348 0.459546
O O7 0.343920 0.198139 0.368133
O O8 0.523911 0.573991 0.398886
O O9 0.360889 0.506185 0.366422
O O10 0.183631 0.381595 0.455165
O O11 0.192289 0.443159 0.351178
O O12 0.120921 0.313745 0.362052
O O13 0.782163 0.580236 0.814865
O O14 0.500000 0.750000 0.791431
O O15 0.340640 0.692206 0.748421
O O16 0.321839 0.804329 0.811893
#
# Coordination Sequence:
#
# PCOD9530630 Si02
#       8
#    16  16  16  16   8  16  16  16
#     4   9  21  33  54  88 121 172 210 257 321 395
#     4  11  23  39  60  89 132 169 214 277 334 406
#     4  10  20  36  59  88 124 171 219 262 329 398
#     4  11  25  40  63  96 131 174 220 276 334 407
#     4  12  26  40  58 100 134 174 222 280 338 412
#     4  10  22  38  63  89 134 167 215 273 327 402
#     4  11  23  44  73  94 131 171 225 285 337 399
#     4  10  23  44  65  98 122 172 227 273 342 393
#
# _framework density 20.747964
#
# number of rings (size 3 to 8) (size 9 to 14) (size 15 to 20)
#    0.000    1.600    1.333    2.400   11.200    2.133 
#    0.000    0.000    0.000    8.000    0.000    0.000 
#    0.000    0.000    0.000    0.000    0.000    0.000 
#
# Total GULP energy -335391.793199 kJ/mol
# GULP energy per Si atom -5589.863220 kJ/mol
# Density = 2.070074 g / cm^3
# Si number density = 20.747964 Si / 1000 Ang^3
#
#
#
# Elastic Constant Matrix: (Units=GPa)
#
#
# Indices 1 2 3 4 5 6 
#
# 1 122.7818 3.7285 -1.0339 0.0000 0.0000 0.0000
# 2 3.7285 58.4291 -11.2621 0.0000 0.0000 0.0000
# 3 -1.0339 -11.2621 30.3402 0.0000 0.0000 0.0000
# 4 0.0000 0.0000 0.0000 23.9923 0.0000 0.0000
# 5 0.0000 0.0000 0.0000 0.0000 15.8553 0.0000
# 6 0.0000 0.0000 0.0000 0.0000 0.0000 20.2624
#
#
#
# Elastic Compliance Matrix: (Units=1/GPa)
#
#
# Indices 1 2 3 4 5 6 
#
# 1 0.008161 -0.000503 0.000091 0.000000 0.000000 0.000000
# 2 -0.000503 0.018465 0.006837 0.000000 0.000000 0.000000
# 3 0.000091 0.006837 0.035500 0.000000 0.000000 0.000000
# 4 0.000000 0.000000 0.000000 0.041680 0.000000 0.000000
# 5 0.000000 0.000000 0.000000 0.000000 0.063071 0.000000
# 6 0.000000 0.000000 0.000000 0.000000 0.000000 0.049353
#
#
# Mechanical properties :
#
#
# Convention : Reuss Voigt Hill
#
# Bulk Modulus (GPa) = 13.33768 21.60180 17.46974
# Shear Modulus (GPa) = 21.89424 26.69657 24.29540
#
# Velocity S-wave (km/s) = 3.25198 3.59096 3.42567
# Velocity P-wave (km/s) = 4.53243 5.25618 4.90767
#
# Compressibility (1/GPa) = 0.07497553
#
# Stress axis : x y z
#
# Youngs Moduli (GPa) = 122.54033 54.15760 28.16870
#
# Poissons Ratio (x) = 0.02725 -0.00257
# Poissons Ratio (y) = 0.06166 -0.19258
# Poissons Ratio (z) = -0.01119 -0.37026
#
# Static dielectric constant tensor:
#      x y z
#    x 1.746600 0.000000 0.000000 
#    y 0.000000 1.731380 0.000000 
#    z 0.000000 0.000000 1.741150 
# 
# From -- ./inp_files/29093.got.cif
#   From: 2010.05.17/outbox.cif.g08.bks.cpg/sg73_15_cif.got.tgz:29093.got - 2010.06.03 17:35:07.
