data_PCOD9530434
_publ_section_title
;
Structure prediction by ZEFSAII (Michael W. Deem and Ramdas Pophale) SiO2 
 PCOD9530434
Probable space group: I B C A 
;
_chemical_formula_sum "Si O2"
_cell_formula_units_Z 120
_cell_length_a 12.760062
_cell_length_b 21.422608
_cell_length_c 24.600932
_cell_angle_alpha 90.000000
_cell_angle_beta 90.000000
_cell_angle_gamma 90.000000
_cell_volume 6724.758400
_symmetry_space_group_name_H-M "I B C A "
_symmetry_group_IT_number 73
_symmetry_cell_setting 'orthorhombic'
loop_
_space_group_symop_operation_xyz
x,y,z
-x,1/2-y,z
x,-y,1/2-z
1/2-x,y,-z
-x,-y,-z
x,1/2+y,-z
-x,y,1/2+z
1/2+x,-y,z
1/2+x,1/2+y,1/2+z
1/2-x,-y,1/2+z
1/2+x,1/2-y,-z
-x,1/2+y,1/2-z
1/2-x,1/2-y,1/2-z
1/2+x,y,1/2-z
1/2-x,1/2+y,z
x,1/2-y,1/2+z
loop_
_atom_site_type_symbol
_atom_site_label
_atom_site_fract_x
_atom_site_fract_y
_atom_site_fract_z
Si Si1 0.375864 0.881021 0.169438
Si Si2 0.256433 0.382992 0.563503
Si Si3 0.563628 0.310611 0.883481
Si Si4 0.704616 0.983278 0.847228
Si Si5 0.770633 0.245557 0.186646
Si Si6 0.575029 0.695708 0.375838
Si Si7 0.470728 0.096939 0.211256
Si Si8 0.860251 0.000000 0.750000
O O1 0.477747 0.860718 0.135202
O O2 0.294021 0.824551 0.168058
O O3 0.411105 0.886835 0.232609
O O4 0.325600 0.944469 0.147607
O O5 0.250000 0.395952 0.500000
O O6 0.155203 0.341003 0.580237
O O7 0.258227 0.445516 0.600114
O O8 0.364180 0.346713 0.580004
O O9 0.500000 0.250000 0.905986
O O10 0.626507 0.284706 0.830813
O O11 0.602693 0.949474 0.822959
O O12 0.790692 0.977785 0.800174
O O13 0.750000 0.250000 0.250000
O O14 0.671409 0.273231 0.156154
O O15 0.500000 0.750000 0.397775
O O16 0.514851 0.654842 0.329714
O O17 0.571274 0.057917 0.229114
#
# Coordination Sequence:
#
# PCOD9530434 Si02
#       8
#    16  16  16  16  16  16  16   8
#     4  11  19  34  55  84 126 151 197 239 290 367
#     4  10  23  45  65  81 117 163 208 261 307 353
#     4   9  21  37  60  87 113 156 203 244 308 370
#     4  11  23  37  54  89 115 155 208 238 295 373
#     4  10  20  32  53  87 126 165 183 233 297 364
#     4  10  23  36  56  92 123 149 205 245 299 368
#     4  11  21  33  52  83 121 162 186 226 299 359
#     4  12  20  34  58  84 122 160 184 242 302 358
#
# _framework density 17.844505999999999
#
# number of rings (size 3 to 8) (size 9 to 14) (size 15 to 20)
#    0.000    1.600    4.000    0.800    3.733    0.533 
#    0.000    0.667    0.000    7.200    0.000    0.000 
#    0.000    0.000    0.000    0.000    0.000    0.000 
#
# Total GULP energy -334852.800714 kJ/mol
# GULP energy per Si atom -5580.880012 kJ/mol
# Density = 1.780389 g / cm^3
# Si number density = 17.844506 Si / 1000 Ang^3
#
#
#
# Elastic Constant Matrix: (Units=GPa)
#
#
# Indices 1 2 3 4 5 6 
#
# 1 78.7571 48.6802 37.6116 0.0000 0.0000 0.0000
# 2 48.6802 105.1515 53.4053 0.0000 0.0000 0.0000
# 3 37.6116 53.4053 118.1812 0.0000 0.0000 0.0000
# 4 0.0000 0.0000 0.0000 15.3758 0.0000 0.0000
# 5 0.0000 0.0000 0.0000 0.0000 17.9532 0.0000
# 6 0.0000 0.0000 0.0000 0.0000 0.0000 160.6357
#
#
#
# Elastic Compliance Matrix: (Units=1/GPa)
#
#
# Indices 1 2 3 4 5 6 
#
# 1 0.018384 -0.007189 -0.002602 0.000000 0.000000 0.000000
# 2 -0.007189 0.015154 -0.004560 0.000000 0.000000 0.000000
# 3 -0.002602 -0.004560 0.011350 0.000000 0.000000 0.000000
# 4 0.000000 0.000000 0.000000 0.065037 0.000000 0.000000
# 5 0.000000 0.000000 0.000000 0.000000 0.055700 0.000000
# 6 0.000000 0.000000 0.000000 0.000000 0.000000 0.006225
#
#
# Mechanical properties :
#
#
# Convention : Reuss Voigt Hill
#
# Bulk Modulus (GPa) = 61.78276 64.60932 63.19604
# Shear Modulus (GPa) = 24.27784 49.61913 36.94848
#
# Velocity S-wave (km/s) = 3.69253 5.27890 4.55530
# Velocity P-wave (km/s) = 7.27170 8.56978 7.94729
#
# Compressibility (1/GPa) = 0.01618575
#
# Stress axis : x y z
#
# Youngs Moduli (GPa) = 54.39643 65.98729 88.10303
#
# Poissons Ratio (x) = 0.47440 0.22923
# Poissons Ratio (y) = 0.39107 0.40177
# Poissons Ratio (z) = 0.14153 0.30091
#
# Static dielectric constant tensor:
#      x y z
#    x 1.614220 0.000000 0.000000 
#    y 0.000000 1.656450 0.000000 
#    z 0.000000 0.000000 1.583890 
# 
# From -- ./inp_files/25647.got.cif
#   From: 2010.05.17/outbox.cif.g08.bks.cpg/sg73_13_cif.got.tgz:25647.got - 2010.06.03 17:35:07.
