data_PCOD9530460
_publ_section_title
;
Structure prediction by ZEFSAII (Michael W. Deem and Ramdas Pophale) SiO2 
 PCOD9530460
Probable space group: I B C A 
;
_chemical_formula_sum "Si O2"
_cell_formula_units_Z 96
_cell_length_a 8.443183
_cell_length_b 23.287613
_cell_length_c 22.359706
_cell_angle_alpha 90.000000
_cell_angle_beta 90.000000
_cell_angle_gamma 90.000000
_cell_volume 4396.400682
_symmetry_space_group_name_H-M "I B C A "
_symmetry_group_IT_number 73
_symmetry_cell_setting 'orthorhombic'
loop_
_space_group_symop_operation_xyz
x,y,z
-x,1/2-y,z
x,-y,1/2-z
1/2-x,y,-z
-x,-y,-z
x,1/2+y,-z
-x,y,1/2+z
1/2+x,-y,z
1/2+x,1/2+y,1/2+z
1/2-x,-y,1/2+z
1/2+x,1/2-y,-z
-x,1/2+y,1/2-z
1/2-x,1/2-y,1/2-z
1/2+x,y,1/2-z
1/2-x,1/2+y,z
x,1/2-y,1/2+z
loop_
_atom_site_type_symbol
_atom_site_label
_atom_site_fract_x
_atom_site_fract_y
_atom_site_fract_z
Si Si1 0.389265 0.365069 0.939605
Si Si2 0.848123 0.522841 0.883745
Si Si3 0.309599 0.252178 0.562839
Si Si4 0.214701 0.351860 0.634936
Si Si5 0.907659 0.578965 0.540808
Si Si6 0.375012 0.045113 0.803094
O O1 0.293594 0.418605 0.913124
O O2 0.286727 0.307637 0.938469
O O3 0.545829 0.358162 0.898549
O O4 0.462011 0.387723 0.001963
O O5 0.942024 0.484180 0.932314
O O6 0.712891 0.482123 0.859912
O O7 0.944920 0.541047 0.824594
O O8 0.500000 0.250000 0.559575
O O9 0.250000 0.281759 0.500000
O O10 0.258428 0.285684 0.623154
O O11 0.354592 0.381917 0.596783
O O12 0.189565 0.389148 0.695840
O O13 0.750000 0.572467 0.500000
O O14 0.352702 0.000000 0.750000
#
# Coordination Sequence:
#
# PCOD9530460 Si02
#       6
#    16  16  16  16  16  16
#     4  10  20  33  53  82 120 160 191 233 292 359
#     4  10  21  35  56  88 117 149 197 245 300 365
#     4  12  23  35  53  81 122 169 210 241 285 358
#     4   9  19  36  54  77 110 151 198 242 287 349
#     4   9  17  33  55  83 122 156 188 236 292 356
#     4  10  21  38  59  81 110 147 193 254 312 355
#
# _framework density 21.836044000000001
#
# number of rings (size 3 to 8) (size 9 to 14) (size 15 to 20)
#    0.000    2.000    0.000    6.000    0.000    4.667 
#    0.000    0.000    0.000    1.000    0.000    7.000 
#    0.000    5.333    0.000    0.000    0.000    0.000 
#
# Total GULP energy -267536.156818 kJ/mol
# GULP energy per Si atom -5573.669934 kJ/mol
# Density = 2.178634 g / cm^3
# Si number density = 21.836044 Si / 1000 Ang^3
#
#
#
# Elastic Constant Matrix: (Units=GPa)
#
#
# Indices 1 2 3 4 5 6 
#
# 1 70.0509 29.7652 22.3997 0.0000 0.0000 0.0000
# 2 29.7652 146.1918 48.0107 0.0000 0.0000 0.0000
# 3 22.3997 48.0107 64.8045 0.0000 0.0000 0.0000
# 4 0.0000 0.0000 0.0000 37.1100 0.0000 0.0000
# 5 0.0000 0.0000 0.0000 0.0000 20.8201 0.0000
# 6 0.0000 0.0000 0.0000 0.0000 0.0000 27.0672
#
#
#
# Elastic Compliance Matrix: (Units=1/GPa)
#
#
# Indices 1 2 3 4 5 6 
#
# 1 0.016463 -0.001960 -0.004238 0.000000 0.000000 0.000000
# 2 -0.001960 0.009273 -0.006193 0.000000 0.000000 0.000000
# 3 -0.004238 -0.006193 0.021484 0.000000 0.000000 0.000000
# 4 0.000000 0.000000 0.000000 0.026947 0.000000 0.000000
# 5 0.000000 0.000000 0.000000 0.000000 0.048030 0.000000
# 6 0.000000 0.000000 0.000000 0.000000 0.000000 0.036945
#
#
# Mechanical properties :
#
#
# Convention : Reuss Voigt Hill
#
# Bulk Modulus (GPa) = 44.56671 53.48869 49.02770
# Shear Modulus (GPa) = 26.12270 29.05757 27.59014
#
# Velocity S-wave (km/s) = 3.46253 3.65186 3.55845
# Velocity P-wave (km/s) = 6.03651 6.50616 6.27573
#
# Compressibility (1/GPa) = 0.02243827
#
# Stress axis : x y z
#
# Youngs Moduli (GPa) = 60.74043 107.83906 46.54667
#
# Poissons Ratio (x) = 0.21137 0.19729
# Poissons Ratio (y) = 0.11906 0.28824
# Poissons Ratio (z) = 0.25745 0.66779
#
# Static dielectric constant tensor:
#      x y z
#    x 1.823600 0.000000 0.000000 
#    y 0.000000 1.898280 0.000000 
#    z 0.000000 0.000000 1.826500 
# 
# From -- ./inp_files/28399.got.cif
#   From: 2010.05.17/outbox.cif.g08.bks.cpg/sg73_15_cif.got.tgz:28399.got - 2010.06.03 17:35:07.
