data_PCOD9530432
_publ_section_title
;
Structure prediction by ZEFSAII (Michael W. Deem and Ramdas Pophale) SiO2 
 PCOD9530432
Probable space group: I B C A 
;
_chemical_formula_sum "Si O2"
_cell_formula_units_Z 72
_cell_length_a 5.491001
_cell_length_b 27.012926
_cell_length_c 21.990087
_cell_angle_alpha 90.000000
_cell_angle_beta 90.000000
_cell_angle_gamma 90.000000
_cell_volume 3261.745705
_symmetry_space_group_name_H-M "I B C A "
_symmetry_group_IT_number 73
_symmetry_cell_setting 'orthorhombic'
loop_
_space_group_symop_operation_xyz
x,y,z
-x,1/2-y,z
x,-y,1/2-z
1/2-x,y,-z
-x,-y,-z
x,1/2+y,-z
-x,y,1/2+z
1/2+x,-y,z
1/2+x,1/2+y,1/2+z
1/2-x,-y,1/2+z
1/2+x,1/2-y,-z
-x,1/2+y,1/2-z
1/2-x,1/2-y,1/2-z
1/2+x,y,1/2-z
1/2-x,1/2+y,z
x,1/2-y,1/2+z
loop_
_atom_site_type_symbol
_atom_site_label
_atom_site_fract_x
_atom_site_fract_y
_atom_site_fract_z
Si Si1 0.568654 0.696892 0.288043
Si Si2 0.734015 0.970272 0.572273
Si Si3 0.250000 0.632788 0.000000
Si Si4 0.132293 0.293190 0.059216
Si Si5 0.044036 0.122948 0.386610
O O1 0.500000 0.750000 0.320614
O O2 0.838704 0.697049 0.258673
O O3 0.569091 0.645330 0.325968
O O4 0.750000 0.956853 0.500000
O O5 0.766574 0.921843 0.614363
O O6 0.471377 0.995233 0.583057
O O7 0.368215 0.605945 0.942199
O O8 0.053393 0.667072 0.967474
O O9 0.327250 0.326614 0.091538
O O10 0.000000 0.250000 0.095918
O O11 0.250000 0.267750 0.000000
#
# Coordination Sequence:
#
# PCOD9530432 Si02
#       5
#    16  16   8  16  16
#     4  10  25  46  68  94 128 179 230 272 326 392
#     4  10  23  41  64  94 135 175 214 267 337 410
#     4  10  22  34  56  92 134 164 210 258 340 410
#     4  10  20  32  50  85 130 165 197 251 326 399
#     4  11  25  38  65  93 128 172 226 278 330 405
#
# _framework density 22.074066999999999
#
# number of rings (size 3 to 8) (size 9 to 14) (size 15 to 20)
#    0.000    1.778    1.111    2.000   14.000    0.889 
#    0.000    0.000    0.000    4.000    0.000    0.000 
#    0.000    0.000    0.000    0.000    0.000    0.000 
#
# Total GULP energy -200646.034971 kJ/mol
# GULP energy per Si atom -5573.500971 kJ/mol
# Density = 2.202383 g / cm^3
# Si number density = 22.074067 Si / 1000 Ang^3
#
#
#
# Elastic Constant Matrix: (Units=GPa)
#
#
# Indices 1 2 3 4 5 6 
#
# 1 97.5695 16.3504 16.1183 0.0000 0.0000 0.0000
# 2 16.3504 101.7160 29.7127 0.0000 0.0000 0.0000
# 3 16.1183 29.7127 22.9209 0.0000 0.0000 0.0000
# 4 0.0000 0.0000 0.0000 31.7231 0.0000 0.0000
# 5 0.0000 0.0000 0.0000 0.0000 25.0750 0.0000
# 6 0.0000 0.0000 0.0000 0.0000 0.0000 38.6878
#
#
#
# Elastic Compliance Matrix: (Units=1/GPa)
#
#
# Indices 1 2 3 4 5 6 
#
# 1 0.011640 0.000837 -0.009271 0.000000 0.000000 0.000000
# 2 0.000837 0.015883 -0.021178 0.000000 0.000000 0.000000
# 3 -0.009271 -0.021178 0.077601 0.000000 0.000000 0.000000
# 4 0.000000 0.000000 0.000000 0.031523 0.000000 0.000000
# 5 0.000000 0.000000 0.000000 0.000000 0.039880 0.000000
# 6 0.000000 0.000000 0.000000 0.000000 0.000000 0.025848
#
#
# Mechanical properties :
#
#
# Convention : Reuss Voigt Hill
#
# Bulk Modulus (GPa) = 21.78604 38.50770 30.14687
# Shear Modulus (GPa) = 18.05710 29.76551 23.91131
#
# Velocity S-wave (km/s) = 2.86321 3.67609 3.29482
# Velocity P-wave (km/s) = 4.56307 5.95826 5.30671
#
# Compressibility (1/GPa) = 0.04590095
#
# Stress axis : x y z
#
# Youngs Moduli (GPa) = 85.90823 62.95959 12.88644
#
# Poissons Ratio (x) = -0.05269 0.11946
# Poissons Ratio (y) = -0.07190 0.27291
# Poissons Ratio (z) = 0.79641 1.33337
#
# Static dielectric constant tensor:
#      x y z
#    x 1.939190 0.000000 0.000000 
#    y 0.000000 1.848600 0.000000 
#    z 0.000000 0.000000 1.930410 
# 
# From -- ./inp_files/2136.got.cif
#   From: 2010.05.17/outbox.cif.g08.bks.cpg/sg73_2_cif.got.tgz:2136.got - 2010.06.03 17:35:07.
