data_PCOD9530170
_publ_section_title
;
Structure prediction by ZEFSAII (Michael W. Deem and Ramdas Pophale) SiO2 
 PCOD9530170
Probable space group: I B C A 
;
_chemical_formula_sum "Si O2"
_cell_formula_units_Z 96
_cell_length_a 11.681595
_cell_length_b 21.542988
_cell_length_c 15.075893
_cell_angle_alpha 90.000000
_cell_angle_beta 90.000000
_cell_angle_gamma 90.000000
_cell_volume 3793.945877
_symmetry_space_group_name_H-M "I B C A "
_symmetry_group_IT_number 73
_symmetry_cell_setting 'orthorhombic'
loop_
_space_group_symop_operation_xyz
x,y,z
-x,1/2-y,z
x,-y,1/2-z
1/2-x,y,-z
-x,-y,-z
x,1/2+y,-z
-x,y,1/2+z
1/2+x,-y,z
1/2+x,1/2+y,1/2+z
1/2-x,-y,1/2+z
1/2+x,1/2-y,-z
-x,1/2+y,1/2-z
1/2-x,1/2-y,1/2-z
1/2+x,y,1/2-z
1/2-x,1/2+y,z
x,1/2-y,1/2+z
loop_
_atom_site_type_symbol
_atom_site_label
_atom_site_fract_x
_atom_site_fract_y
_atom_site_fract_z
Si Si1 0.837668 0.979644 0.582305
Si Si2 0.765487 0.332159 0.835219
Si Si3 0.521718 0.396336 0.152107
Si Si4 0.459053 0.898153 0.648155
Si Si5 0.895456 0.783378 0.585372
Si Si6 0.208518 0.128917 0.637259
O O1 0.750000 0.980299 0.500000
O O2 0.954543 0.938346 0.582372
O O3 0.761790 0.939784 0.653064
O O4 0.888435 0.045812 0.606288
O O5 0.632292 0.342760 0.849589
O O6 0.814232 0.271935 0.882205
O O7 0.789642 0.333906 0.729898
O O8 0.844778 0.389514 0.868559
O O9 0.496248 0.418228 0.251904
O O10 0.474501 0.325184 0.151275
O O11 0.578892 0.877794 0.605139
O O12 0.799172 0.836559 0.574841
O O13 0.000000 0.750000 0.530400
#
# Coordination Sequence:
#
# PCOD9530170 Si02
#       6
#    16  16  16  16  16  16
#     4  11  24  42  59  81 123 172 220 265 316 375
#     4  10  19  34  61  96 123 149 193 264 322 385
#     4   9  20  37  60  93 118 164 205 258 323 387
#     4  11  22  36  58  89 125 157 209 266 320 375
#     4   9  17  34  60  95 127 150 189 247 323 388
#     4  10  22  37  58  92 121 160 206 253 322 384
#
# _framework density 25.303471999999999
#
# number of rings (size 3 to 8) (size 9 to 14) (size 15 to 20)
#    0.000    2.000    3.333    1.000    2.333    1.333 
#    0.000    0.000    0.000    4.000   17.333    0.000 
#    0.000    0.000    0.000    0.000    0.000    0.000 
#
# Total GULP energy -267428.264383 kJ/mol
# GULP energy per Si atom -5571.422175 kJ/mol
# Density = 2.524588 g / cm^3
# Si number density = 25.303472 Si / 1000 Ang^3
#
#
#
# Elastic Constant Matrix: (Units=GPa)
#
#
# Indices 1 2 3 4 5 6 
#
# 1 237.8177 57.4122 22.7882 0.0000 0.0000 0.0000
# 2 57.4122 77.1834 10.7499 0.0000 0.0000 0.0000
# 3 22.7882 10.7499 33.7133 0.0000 0.0000 0.0000
# 4 0.0000 0.0000 0.0000 71.4793 0.0000 0.0000
# 5 0.0000 0.0000 0.0000 0.0000 19.6454 0.0000
# 6 0.0000 0.0000 0.0000 0.0000 0.0000 35.9763
#
#
#
# Elastic Compliance Matrix: (Units=1/GPa)
#
#
# Indices 1 2 3 4 5 6 
#
# 1 0.005310 -0.003610 -0.002438 0.000000 0.000000 0.000000
# 2 -0.003610 0.016013 -0.002666 0.000000 0.000000 0.000000
# 3 -0.002438 -0.002666 0.032160 0.000000 0.000000 0.000000
# 4 0.000000 0.000000 0.000000 0.013990 0.000000 0.000000
# 5 0.000000 0.000000 0.000000 0.000000 0.050903 0.000000
# 6 0.000000 0.000000 0.000000 0.000000 0.000000 0.027796
#
#
# Mechanical properties :
#
#
# Convention : Reuss Voigt Hill
#
# Bulk Modulus (GPa) = 27.73548 58.95720 43.34634
# Shear Modulus (GPa) = 28.47092 42.60446 35.53769
#
# Velocity S-wave (km/s) = 3.35801 4.10779 3.75168
# Velocity P-wave (km/s) = 5.10097 6.77121 5.99454
#
# Compressibility (1/GPa) = 0.03605490
#
# Stress axis : x y z
#
# Youngs Moduli (GPa) = 188.32044 62.44965 31.09470
#
# Poissons Ratio (x) = 0.22546 0.07581
# Poissons Ratio (y) = 0.67989 0.08288
# Poissons Ratio (z) = 0.45915 0.16646
#
# Static dielectric constant tensor:
#      x y z
#    x 2.060650 0.000000 0.000000 
#    y 0.000000 2.066080 0.000000 
#    z 0.000000 0.000000 2.062590 
# 
# From -- ./inp_files/25476.got.cif
#   From: 2010.05.17/outbox.cif.g08.bks.cpg/sg73_13_cif.got.tgz:25476.got - 2010.06.03 17:35:07.
