data_PCOD9530659
_publ_section_title
;
Structure prediction by ZEFSAII (Michael W. Deem and Ramdas Pophale) SiO2 
 PCOD9530659
Probable space group: I B C A 
;
_chemical_formula_sum "Si O2"
_cell_formula_units_Z 112
_cell_length_a 13.546147
_cell_length_b 12.625387
_cell_length_c 27.184739
_cell_angle_alpha 90.000000
_cell_angle_beta 90.000000
_cell_angle_gamma 90.000000
_cell_volume 4649.279454
_symmetry_space_group_name_H-M "I B C A "
_symmetry_group_IT_number 73
_symmetry_cell_setting 'orthorhombic'
loop_
_space_group_symop_operation_xyz
x,y,z
-x,1/2-y,z
x,-y,1/2-z
1/2-x,y,-z
-x,-y,-z
x,1/2+y,-z
-x,y,1/2+z
1/2+x,-y,z
1/2+x,1/2+y,1/2+z
1/2-x,-y,1/2+z
1/2+x,1/2-y,-z
-x,1/2+y,1/2-z
1/2-x,1/2-y,1/2-z
1/2+x,y,1/2-z
1/2-x,1/2+y,z
x,1/2-y,1/2+z
loop_
_atom_site_type_symbol
_atom_site_label
_atom_site_fract_x
_atom_site_fract_y
_atom_site_fract_z
Si Si1 0.110755 0.629308 0.123497
Si Si2 0.111781 0.443319 0.698425
Si Si3 0.616491 0.055770 0.803038
Si Si4 0.621336 0.245034 0.033358
Si Si5 0.732838 0.254541 0.828900
Si Si6 0.896095 0.549769 0.098417
Si Si7 0.393957 0.194542 0.926012
O O1 0.140015 0.524289 0.152447
O O2 0.150689 0.658192 0.069481
O O3 0.153128 0.723007 0.158273
O O4 0.996119 0.610433 0.114268
O O5 0.108993 0.500000 0.750000
O O6 0.187805 0.348538 0.703019
O O7 0.143650 0.515270 0.651980
O O8 0.997805 0.407638 0.688541
O O9 0.694253 0.148708 0.805436
O O10 0.619334 0.000000 0.750000
O O11 0.500000 0.250000 0.030916
O O12 0.650352 0.134604 0.060434
O O13 0.650369 0.263007 0.977217
O O14 0.673391 0.271468 0.880264
O O15 0.907803 0.433678 0.073214
O O16 0.500000 0.250000 0.919306
#
# Coordination Sequence:
#
# PCOD9530659 Si02
#       7
#    16  16  16  16  16  16  16
#     4  10  22  37  56  85 120 153 190 246 303 355
#     4   9  19  37  63  89 115 154 201 247 296 354
#     4  10  22  40  60  83 116 159 201 245 295 356
#     4   9  20  36  58  85 115 155 198 237 292 355
#     4  11  22  36  59  89 121 152 196 249 306 363
#     4   9  19  38  60  86 119 155 204 248 292 361
#     4  10  20  36  62  88 114 156 202 247 295 356
#
# _framework density 24.089753999999999
#
# number of rings (size 3 to 8) (size 9 to 14) (size 15 to 20)
#    0.000    2.286    0.000    3.000    0.000   11.429 
#    0.000    4.286    0.000   10.286    0.000    0.000 
#    0.000    0.000    0.000    0.000    0.000    0.000 
#
# Total GULP energy -312817.544245 kJ/mol
# GULP energy per Si atom -5586.027576 kJ/mol
# Density = 2.403492 g / cm^3
# Si number density = 24.089754 Si / 1000 Ang^3
#
#
#
# Elastic Constant Matrix: (Units=GPa)
#
#
# Indices 1 2 3 4 5 6 
#
# 1 99.8424 37.8699 20.8704 0.0000 0.0000 0.0000
# 2 37.8699 127.6333 66.6806 0.0000 0.0000 0.0000
# 3 20.8704 66.6806 124.6147 0.0000 0.0000 0.0000
# 4 0.0000 0.0000 0.0000 29.8258 0.0000 0.0000
# 5 0.0000 0.0000 0.0000 0.0000 26.0269 0.0000
# 6 0.0000 0.0000 0.0000 0.0000 0.0000 21.9582
#
#
#
# Elastic Compliance Matrix: (Units=1/GPa)
#
#
# Indices 1 2 3 4 5 6 
#
# 1 0.011288 -0.003278 -0.000136 0.000000 0.000000 0.000000
# 2 -0.003278 0.011827 -0.005780 0.000000 0.000000 0.000000
# 3 -0.000136 -0.005780 0.011140 0.000000 0.000000 0.000000
# 4 0.000000 0.000000 0.000000 0.033528 0.000000 0.000000
# 5 0.000000 0.000000 0.000000 0.000000 0.038422 0.000000
# 6 0.000000 0.000000 0.000000 0.000000 0.000000 0.045541
#
#
# Mechanical properties :
#
#
# Convention : Reuss Voigt Hill
#
# Bulk Modulus (GPa) = 63.02392 66.99247 65.00819
# Shear Modulus (GPa) = 28.50263 30.67348 29.58806
#
# Velocity S-wave (km/s) = 3.44348 3.57220 3.50843
# Velocity P-wave (km/s) = 6.48298 6.69956 6.59216
#
# Compressibility (1/GPa) = 0.01586699
#
# Stress axis : x y z
#
# Youngs Moduli (GPa) = 88.59289 84.55240 89.76487
#
# Poissons Ratio (x) = 0.27715 0.01225
# Poissons Ratio (y) = 0.29039 0.51880
# Poissons Ratio (z) = 0.01209 0.48868
#
# Static dielectric constant tensor:
#      x y z
#    x 2.026440 0.000000 0.000000 
#    y 0.000000 1.947750 0.000000 
#    z 0.000000 0.000000 1.916560 
# 
# From -- ./inp_files/34304.got.cif
#   From: 2010.05.17/outbox.cif.g08.bks.cpg/sg73_18_cif.got.tgz:34304.got - 2010.06.03 17:35:07.
