data_PCOD9530959
_publ_section_title
;
Structure prediction by ZEFSAII (Michael W. Deem and Ramdas Pophale) SiO2 
 PCOD9530959
Probable space group: I B C A 
;
_chemical_formula_sum "Si O2"
_cell_formula_units_Z 88
_cell_length_a 14.205636
_cell_length_b 15.141799
_cell_length_c 18.299883
_cell_angle_alpha 90.000000
_cell_angle_beta 90.000000
_cell_angle_gamma 90.000000
_cell_volume 3936.284429
_symmetry_space_group_name_H-M "I B C A "
_symmetry_group_IT_number 73
_symmetry_cell_setting 'orthorhombic'
loop_
_space_group_symop_operation_xyz
x,y,z
-x,1/2-y,z
x,-y,1/2-z
1/2-x,y,-z
-x,-y,-z
x,1/2+y,-z
-x,y,1/2+z
1/2+x,-y,z
1/2+x,1/2+y,1/2+z
1/2-x,-y,1/2+z
1/2+x,1/2-y,-z
-x,1/2+y,1/2-z
1/2-x,1/2-y,1/2-z
1/2+x,y,1/2-z
1/2-x,1/2+y,z
x,1/2-y,1/2+z
loop_
_atom_site_type_symbol
_atom_site_label
_atom_site_fract_x
_atom_site_fract_y
_atom_site_fract_z
Si Si1 0.296982 0.902636 0.725097
Si Si2 0.403532 0.027521 0.174215
Si Si3 0.060621 0.918788 0.528467
Si Si4 0.592334 0.295799 0.894922
Si Si5 0.750000 0.016081 0.000000
Si Si6 0.278724 0.135339 0.374400
O O1 0.191794 0.918623 0.693181
O O2 0.363677 0.863727 0.663210
O O3 0.279377 0.848619 0.800142
O O4 0.327822 0.000000 0.750000
O O5 0.451486 0.000000 0.250000
O O6 0.364312 0.933425 0.143558
O O7 0.460009 0.084215 0.114931
O O8 0.167602 0.952670 0.524935
O O9 0.058212 0.839906 0.470751
O O10 0.000000 0.000000 0.500000
O O11 0.500000 0.250000 0.861914
O O12 0.673531 0.222703 0.905691
O O13 0.720069 0.080906 0.065662
#
# Coordination Sequence:
#
# PCOD9530959 Si02
#       6
#    16  16  16  16   8  16
#     4   9  19  39  63  86 118 167 217 252 312 394
#     4   8  17  38  65  87 111 156 206 254 309 379
#     4  11  22  39  61  88 121 164 210 248 307 389
#     4  12  23  36  58  92 130 165 204 266 317 363
#     4  10  20  40  64  86 118 164 204 260 324 380
#     4   9  19  36  59  88 117 151 206 262 313 372
#
# _framework density 22.356107000000002
#
# number of rings (size 3 to 8) (size 9 to 14) (size 15 to 20)
#    0.000    2.545    0.000    6.000    0.000    2.182 
#    0.000   13.636    0.000    9.818    0.000    0.000 
#    0.000    0.000    0.000    0.000    0.000    0.000 
#
# Total GULP energy -245467.716337 kJ/mol
# GULP energy per Si atom -5578.811735 kJ/mol
# Density = 2.230522 g / cm^3
# Si number density = 22.356107 Si / 1000 Ang^3
#
#
#
# Elastic Constant Matrix: (Units=GPa)
#
#
# Indices 1 2 3 4 5 6 
#
# 1 38.8507 -3.7697 2.4464 0.0000 0.0000 0.0000
# 2 -3.7697 58.9474 24.5007 0.0000 0.0000 0.0000
# 3 2.4464 24.5007 122.1843 0.0000 0.0000 0.0000
# 4 0.0000 0.0000 0.0000 36.4708 0.0000 0.0000
# 5 0.0000 0.0000 0.0000 0.0000 7.5485 0.0000
# 6 0.0000 0.0000 0.0000 0.0000 0.0000 18.0120
#
#
#
# Elastic Compliance Matrix: (Units=1/GPa)
#
#
# Indices 1 2 3 4 5 6 
#
# 1 0.025997 0.002050 -0.000932 0.000000 0.000000 0.000000
# 2 0.002050 0.018668 -0.003784 0.000000 0.000000 0.000000
# 3 -0.000932 -0.003784 0.008962 0.000000 0.000000 0.000000
# 4 0.000000 0.000000 0.000000 0.027419 0.000000 0.000000
# 5 0.000000 0.000000 0.000000 0.000000 0.132476 0.000000
# 6 0.000000 0.000000 0.000000 0.000000 0.000000 0.055519
#
#
# Mechanical properties :
#
#
# Convention : Reuss Voigt Hill
#
# Bulk Modulus (GPa) = 20.70618 29.59302 25.14960
# Shear Modulus (GPa) = 17.21337 25.52659 21.36998
#
# Velocity S-wave (km/s) = 2.77783 3.38274 3.09510
# Velocity P-wave (km/s) = 4.42386 5.34070 4.90376
#
# Compressibility (1/GPa) = 0.04829476
#
# Stress axis : x y z
#
# Youngs Moduli (GPa) = 38.46582 53.56668 111.58372
#
# Poissons Ratio (x) = -0.10980 0.10394
# Poissons Ratio (y) = -0.07884 0.42228
# Poissons Ratio (z) = 0.03583 0.20272
#
# Static dielectric constant tensor:
#      x y z
#    x 1.640790 0.000000 0.000000 
#    y 0.000000 1.841920 0.000000 
#    z 0.000000 0.000000 1.969900 
# 
# From -- ./inp_files/22444.got.cif
#   From: 2010.05.17/outbox.cif.g08.bks.cpg/sg73_12_cif.got.tgz:22444.got - 2010.06.03 17:35:07.
