data_PCOD9530423
_publ_section_title
;
Structure prediction by ZEFSAII (Michael W. Deem and Ramdas Pophale) SiO2 
 PCOD9530423
Probable space group: I B C A 
;
_chemical_formula_sum "Si O2"
_cell_formula_units_Z 88
_cell_length_a 27.959645
_cell_length_b 33.425804
_cell_length_c 5.118808
_cell_angle_alpha 90.000000
_cell_angle_beta 90.000000
_cell_angle_gamma 90.000000
_cell_volume 4783.902890
_symmetry_space_group_name_H-M "I B C A "
_symmetry_group_IT_number 73
_symmetry_cell_setting 'orthorhombic'
loop_
_space_group_symop_operation_xyz
x,y,z
-x,1/2-y,z
x,-y,1/2-z
1/2-x,y,-z
-x,-y,-z
x,1/2+y,-z
-x,y,1/2+z
1/2+x,-y,z
1/2+x,1/2+y,1/2+z
1/2-x,-y,1/2+z
1/2+x,1/2-y,-z
-x,1/2+y,1/2-z
1/2-x,1/2-y,1/2-z
1/2+x,y,1/2-z
1/2-x,1/2+y,z
x,1/2-y,1/2+z
loop_
_atom_site_type_symbol
_atom_site_label
_atom_site_fract_x
_atom_site_fract_y
_atom_site_fract_z
Si Si1 0.621976 0.092687 0.040665
Si Si2 0.347816 0.860754 0.488091
Si Si3 0.193166 0.223900 0.010500
Si Si4 0.201931 0.463823 0.105824
Si Si5 0.750000 0.098049 0.500000
Si Si6 0.472123 0.048086 0.724991
O O1 0.632664 0.114218 0.762115
O O2 0.665249 0.060144 0.075598
O O3 0.621860 0.126662 0.261509
O O4 0.574303 0.067578 0.094165
O O5 0.340000 0.813904 0.443073
O O6 0.294525 0.874820 0.576381
O O7 0.184812 0.241324 0.298500
O O8 0.250000 0.213394 0.000000
O O9 0.174848 0.500000 0.250000
O O10 0.226364 0.430058 0.283732
O O11 0.250000 0.484421 0.000000
O O12 0.514462 0.059530 0.521591
O O13 0.466811 0.000000 0.750000
#
# Coordination Sequence:
#
# PCOD9530423 Si02
#       6
#    16  16  16  16   8  16
#     4  11  24  36  58  83 111 149 192 237 292 338
#     4  11  21  36  54  80 116 147 190 231 279 334
#     4  10  20  34  54  79 110 156 199 231 269 331
#     4  11  21  33  48  70 108 153 195 231 264 320
#     4  10  20  32  46  68 106 154 188 228 266 314
#     4  10  22  41  63  83 111 146 191 248 300 342
#
# _framework density 18.395023999999999
#
# number of rings (size 3 to 8) (size 9 to 14) (size 15 to 20)
#    0.000    1.455    3.636    2.182    0.000    5.818 
#    0.000    0.000    0.000    0.000    0.000    0.000 
#    0.000   50.909    0.000    0.000    0.000    0.000 
#
# Total GULP energy -245006.006596 kJ/mol
# GULP energy per Si atom -5568.318332 kJ/mol
# Density = 1.835316 g / cm^3
# Si number density = 18.395024 Si / 1000 Ang^3
#
#
#
# Elastic Constant Matrix: (Units=GPa)
#
#
# Indices 1 2 3 4 5 6 
#
# 1 68.4296 22.6423 19.2277 0.0000 0.0000 0.0000
# 2 22.6423 65.9605 15.6910 0.0000 0.0000 0.0000
# 3 19.2277 15.6910 85.2406 0.0000 0.0000 0.0000
# 4 0.0000 0.0000 0.0000 20.0246 0.0000 0.0000
# 5 0.0000 0.0000 0.0000 0.0000 19.2972 0.0000
# 6 0.0000 0.0000 0.0000 0.0000 0.0000 21.4267
#
#
#
# Elastic Compliance Matrix: (Units=1/GPa)
#
#
# Indices 1 2 3 4 5 6 
#
# 1 0.017151 -0.005195 -0.002912 0.000000 0.000000 0.000000
# 2 -0.005195 0.017428 -0.002036 0.000000 0.000000 0.000000
# 3 -0.002912 -0.002036 0.012763 0.000000 0.000000 0.000000
# 4 0.000000 0.000000 0.000000 0.049939 0.000000 0.000000
# 5 0.000000 0.000000 0.000000 0.000000 0.051821 0.000000
# 6 0.000000 0.000000 0.000000 0.000000 0.000000 0.046671
#
#
# Mechanical properties :
#
#
# Convention : Reuss Voigt Hill
#
# Bulk Modulus (GPa) = 36.96127 37.19476 37.07801
# Shear Modulus (GPa) = 22.21453 22.95433 22.58443
#
# Velocity S-wave (km/s) = 3.47888 3.53633 3.50772
# Velocity P-wave (km/s) = 6.02275 6.07767 6.05027
#
# Compressibility (1/GPa) = 0.02705535
#
# Stress axis : x y z
#
# Youngs Moduli (GPa) = 58.30658 57.37838 78.34940
#
# Poissons Ratio (x) = 0.29805 0.22819
# Poissons Ratio (y) = 0.30287 0.15955
# Poissons Ratio (z) = 0.16982 0.11685
#
# Static dielectric constant tensor:
#      x y z
#    x 1.654330 0.000000 0.000000 
#    y 0.000000 1.648710 0.000000 
#    z 0.000000 0.000000 1.603470 
# 
# From -- ./inp_files/2275.got.cif
#   From: 2010.05.17/outbox.cif.g08.bks.cpg/sg73_2_cif.got.tgz:2275.got - 2010.06.03 17:35:07.
