data_PCOD9530723
_publ_section_title
;
Structure prediction by ZEFSAII (Michael W. Deem and Ramdas Pophale) SiO2 
 PCOD9530723
Probable space group: I B C A 
;
_chemical_formula_sum "Si O2"
_cell_formula_units_Z 112
_cell_length_a 22.685481
_cell_length_b 22.518598
_cell_length_c 9.907766
_cell_angle_alpha 90.000000
_cell_angle_beta 90.000000
_cell_angle_gamma 90.000000
_cell_volume 5061.334972
_symmetry_space_group_name_H-M "I B C A "
_symmetry_group_IT_number 73
_symmetry_cell_setting 'orthorhombic'
loop_
_space_group_symop_operation_xyz
x,y,z
-x,1/2-y,z
x,-y,1/2-z
1/2-x,y,-z
-x,-y,-z
x,1/2+y,-z
-x,y,1/2+z
1/2+x,-y,z
1/2+x,1/2+y,1/2+z
1/2-x,-y,1/2+z
1/2+x,1/2-y,-z
-x,1/2+y,1/2-z
1/2-x,1/2-y,1/2-z
1/2+x,y,1/2-z
1/2-x,1/2+y,z
x,1/2-y,1/2+z
loop_
_atom_site_type_symbol
_atom_site_label
_atom_site_fract_x
_atom_site_fract_y
_atom_site_fract_z
Si Si1 0.218417 0.838777 0.222781
Si Si2 0.310162 0.513382 0.591074
Si Si3 0.163008 0.357019 0.071811
Si Si4 0.537590 0.689341 0.386324
Si Si5 0.649620 0.556162 0.652181
Si Si6 0.371685 0.744793 0.722042
Si Si7 0.045063 0.641901 0.828424
O O1 0.286515 0.844991 0.185165
O O2 0.197720 0.892942 0.316311
O O3 0.191506 0.777343 0.277252
O O4 0.186854 0.847386 0.078022
O O5 0.299173 0.500000 0.750000
O O6 0.250000 0.524176 0.500000
O O7 0.349001 0.573516 0.584428
O O8 0.156876 0.463455 0.496837
O O9 0.119567 0.303373 0.103920
O O10 0.500000 0.750000 0.401509
O O11 0.604503 0.709528 0.353073
O O12 0.511138 0.650635 0.264649
O O13 0.530275 0.649695 0.516524
O O14 0.659430 0.500000 0.750000
O O15 0.586803 0.585217 0.688571
O O16 0.414957 0.800272 0.703720
#
# Coordination Sequence:
#
# PCOD9530723 Si02
#       7
#    16  16  16  16  16  16  16
#     4  10  20  37  60  91 130 173 206 258 313 372
#     4  12  24  41  67  92 128 177 220 259 303 379
#     4  11  20  36  59  92 130 169 208 254 315 376
#     4  10  20  40  62  91 120 158 209 262 328 395
#     4  11  22  44  65  93 126 169 219 262 318 382
#     4  10  21  34  63  93 129 159 209 259 324 386
#     4  10  23  40  66  92 120 163 212 272 327 385
#
# _framework density 22.128551000000002
#
# number of rings (size 3 to 8) (size 9 to 14) (size 15 to 20)
#    0.000    1.429    2.857    3.857    2.000    2.286 
#    0.000    0.714    0.000    0.000    0.000    0.000 
#    0.000    0.000    0.000    0.000    0.000    0.000 
#
# Total GULP energy -312605.512686 kJ/mol
# GULP energy per Si atom -5582.241298 kJ/mol
# Density = 2.207819 g / cm^3
# Si number density = 22.128551 Si / 1000 Ang^3
#
#
#
# Elastic Constant Matrix: (Units=GPa)
#
#
# Indices 1 2 3 4 5 6 
#
# 1 40.6313 17.3568 9.5620 0.0000 0.0000 0.0000
# 2 17.3568 114.0446 40.3832 0.0000 0.0000 0.0000
# 3 9.5620 40.3832 103.8753 0.0000 0.0000 0.0000
# 4 0.0000 0.0000 0.0000 30.4033 0.0000 0.0000
# 5 0.0000 0.0000 0.0000 0.0000 23.3477 0.0000
# 6 0.0000 0.0000 0.0000 0.0000 0.0000 -9.9105
#
#
#
# Elastic Compliance Matrix: (Units=1/GPa)
#
#
# Indices 1 2 3 4 5 6 
#
# 1 0.026414 -0.003663 -0.001007 0.000000 0.000000 0.000000
# 2 -0.003663 0.010676 -0.003813 0.000000 0.000000 0.000000
# 3 -0.001007 -0.003813 0.011202 0.000000 0.000000 0.000000
# 4 0.000000 0.000000 0.000000 0.032891 0.000000 0.000000
# 5 0.000000 0.000000 0.000000 0.000000 0.042831 0.000000
# 6 0.000000 0.000000 0.000000 0.000000 0.000000 -0.100904
#
#
# Mechanical properties :
#
#
# Convention : Reuss Voigt Hill
#
# Bulk Modulus (GPa) = 31.92425 43.68391 37.80408
# Shear Modulus (GPa) = 98.97151 21.51806 60.24479
#
# Velocity S-wave (km/s) = 6.69498 3.12173 5.22341
# Velocity P-wave (km/s) = 8.61521 5.72516 7.31434
#
# Compressibility (1/GPa) = 0.03132415
#
# Stress axis : x y z
#
# Youngs Moduli (GPa) = 37.85941 93.66503 89.26843
#
# Poissons Ratio (x) = 0.34312 0.08992
# Poissons Ratio (y) = 0.13869 0.34042
# Poissons Ratio (z) = 0.03813 0.35718
#
# Static dielectric constant tensor:
#      x y z
#    x 1.919520 0.000000 0.000000 
#    y 0.000000 1.862540 0.000000 
#    z 0.000000 0.000000 1.819680 
# 
# From -- ./inp_files/13032.got.cif
#   From: 2010.05.17/outbox.cif.g08.bks.cpg/sg73_7_cif.got.tgz:13032.got - 2010.06.03 17:35:07.
