data_PCOD9530450
_publ_section_title
;
Structure prediction by ZEFSAII (Michael W. Deem and Ramdas Pophale) SiO2 
 PCOD9530450
Probable space group: I B C A 
;
_chemical_formula_sum "Si O2"
_cell_formula_units_Z 88
_cell_length_a 21.320891
_cell_length_b 22.994440
_cell_length_c 8.671017
_cell_angle_alpha 90.000000
_cell_angle_beta 90.000000
_cell_angle_gamma 90.000000
_cell_volume 4251.069693
_symmetry_space_group_name_H-M "I B C A "
_symmetry_group_IT_number 73
_symmetry_cell_setting 'orthorhombic'
loop_
_space_group_symop_operation_xyz
x,y,z
-x,1/2-y,z
x,-y,1/2-z
1/2-x,y,-z
-x,-y,-z
x,1/2+y,-z
-x,y,1/2+z
1/2+x,-y,z
1/2+x,1/2+y,1/2+z
1/2-x,-y,1/2+z
1/2+x,1/2-y,-z
-x,1/2+y,1/2-z
1/2-x,1/2-y,1/2-z
1/2+x,y,1/2-z
1/2-x,1/2+y,z
x,1/2-y,1/2+z
loop_
_atom_site_type_symbol
_atom_site_label
_atom_site_fract_x
_atom_site_fract_y
_atom_site_fract_z
Si Si1 0.807607 0.826827 0.777360
Si Si2 0.968537 0.085115 0.249306
Si Si3 0.418511 0.471984 0.050009
Si Si4 0.421042 0.387773 0.445565
Si Si5 0.750000 0.768229 0.500000
Si Si6 0.217493 0.558899 0.663777
O O1 0.870944 0.849600 0.856002
O O2 0.800009 0.805508 0.599852
O O3 0.766813 0.886111 0.770702
O O4 0.784025 0.774331 0.880940
O O5 0.928399 0.047634 0.127067
O O6 0.927526 0.120804 0.371160
O O7 0.019358 0.049379 0.356521
O O8 0.012934 0.122811 0.139034
O O9 0.409822 0.541661 0.062588
O O10 0.356899 0.443173 0.122880
O O11 0.234515 0.500000 0.750000
O O12 0.250000 0.562575 0.500000
#
# Coordination Sequence:
#
# PCOD9530450 Si02
#       6
#    16  16  16  16   8  16
#     4  11  23  45  67  89 119 167 229 275 320 383
#     4  10  20  32  60  97 141 174 201 244 322 417
#     4  11  19  35  55  98 141 172 203 240 327 407
#     4  11  19  35  60  95 131 170 204 258 313 396
#     4  10  26  48  70  84 110 178 242 278 314 374
#     4  12  25  40  61  99 141 167 203 272 343 409
#
# _framework density 20.700672999999998
#
# number of rings (size 3 to 8) (size 9 to 14) (size 15 to 20)
#    0.000    1.091    4.545    4.364    1.273    2.909 
#    0.000    0.000    0.000    3.273    0.000    0.000 
#    0.000    0.000    0.000    0.000    0.000    0.000 
#
# Total GULP energy -245350.795819 kJ/mol
# GULP energy per Si atom -5576.154450 kJ/mol
# Density = 2.065356 g / cm^3
# Si number density = 20.700673 Si / 1000 Ang^3
#
#
#
# Elastic Constant Matrix: (Units=GPa)
#
#
# Indices 1 2 3 4 5 6 
#
# 1 56.1489 18.5903 34.8394 0.0000 0.0000 0.0000
# 2 18.5903 78.2926 33.1789 0.0000 0.0000 0.0000
# 3 34.8394 33.1789 155.8098 0.0000 0.0000 0.0000
# 4 0.0000 0.0000 0.0000 41.4916 0.0000 0.0000
# 5 0.0000 0.0000 0.0000 0.0000 32.6868 0.0000
# 6 0.0000 0.0000 0.0000 0.0000 0.0000 30.5619
#
#
#
# Elastic Compliance Matrix: (Units=1/GPa)
#
#
# Indices 1 2 3 4 5 6 
#
# 1 0.021456 -0.003365 -0.004081 0.000000 0.000000 0.000000
# 2 -0.003365 0.014567 -0.002350 0.000000 0.000000 0.000000
# 3 -0.004081 -0.002350 0.007831 0.000000 0.000000 0.000000
# 4 0.000000 0.000000 0.000000 0.024101 0.000000 0.000000
# 5 0.000000 0.000000 0.000000 0.000000 0.030593 0.000000
# 6 0.000000 0.000000 0.000000 0.000000 0.000000 0.032721
#
#
# Mechanical properties :
#
#
# Convention : Reuss Voigt Hill
#
# Bulk Modulus (GPa) = 41.21535 51.49652 46.35594
# Shear Modulus (GPa) = 31.45664 34.52423 32.99044
#
# Velocity S-wave (km/s) = 3.90243 4.08828 3.99643
# Velocity P-wave (km/s) = 6.34497 6.87140 6.61342
#
# Compressibility (1/GPa) = 0.02426280
#
# Stress axis : x y z
#
# Youngs Moduli (GPa) = 46.60660 68.64661 127.69855
#
# Poissons Ratio (x) = 0.23101 0.52114
# Poissons Ratio (y) = 0.15684 0.30004
# Poissons Ratio (z) = 0.19020 0.16129
#
# Static dielectric constant tensor:
#      x y z
#    x 1.782530 0.000000 0.000000 
#    y 0.000000 1.766000 0.000000 
#    z 0.000000 0.000000 1.824310 
# 
# From -- ./inp_files/6262.got.cif
#   From: 2010.05.17/outbox.cif.g08.bks.cpg/sg73_4_cif.got.tgz:6262.got - 2010.06.03 17:35:07.
