data_PCOD9530563
_publ_section_title
;
Structure prediction by ZEFSAII (Michael W. Deem and Ramdas Pophale) SiO2 
 PCOD9530563
Probable space group: I B C A 
;
_chemical_formula_sum "Si O2"
_cell_formula_units_Z 96
_cell_length_a 12.290680
_cell_length_b 14.634265
_cell_length_c 23.416078
_cell_angle_alpha 90.000000
_cell_angle_beta 90.000000
_cell_angle_gamma 90.000000
_cell_volume 4211.734465
_symmetry_space_group_name_H-M "I B C A "
_symmetry_group_IT_number 73
_symmetry_cell_setting 'orthorhombic'
loop_
_space_group_symop_operation_xyz
x,y,z
-x,1/2-y,z
x,-y,1/2-z
1/2-x,y,-z
-x,-y,-z
x,1/2+y,-z
-x,y,1/2+z
1/2+x,-y,z
1/2+x,1/2+y,1/2+z
1/2-x,-y,1/2+z
1/2+x,1/2-y,-z
-x,1/2+y,1/2-z
1/2-x,1/2-y,1/2-z
1/2+x,y,1/2-z
1/2-x,1/2+y,z
x,1/2-y,1/2+z
loop_
_atom_site_type_symbol
_atom_site_label
_atom_site_fract_x
_atom_site_fract_y
_atom_site_fract_z
Si Si1 0.268169 0.654454 0.680398
Si Si2 0.663957 0.354517 0.800652
Si Si3 0.934401 0.594245 0.510499
Si Si4 0.415067 0.110555 0.604658
Si Si5 0.783785 0.072229 0.582677
Si Si6 0.452140 0.023628 0.315211
O O1 0.213077 0.620936 0.739280
O O2 0.335143 0.745325 0.694833
O O3 0.167405 0.675610 0.638421
O O4 0.350198 0.577086 0.658245
O O5 0.733151 0.391011 0.853900
O O6 0.549574 0.403298 0.809409
O O7 0.880418 0.627868 0.451187
O O8 0.827268 0.575551 0.548132
O O9 0.000000 0.500000 0.500000
O O10 0.018934 0.647866 0.550673
O O11 0.335606 0.028382 0.584821
O O12 0.499124 0.060564 0.648483
O O13 0.424102 0.000000 0.250000
#
# Coordination Sequence:
#
# PCOD9530563 Si02
#       6
#    16  16  16  16  16  16
#     4  11  23  37  58  88 129 165 198 252 317 374
#     4  10  23  40  56  88 129 166 199 245 318 378
#     4   9  18  35  59  90 116 152 207 266 310 347
#     4  10  20  35  59  91 117 155 209 253 300 367
#     4   9  19  35  61  83 119 163 205 258 308 357
#     4  11  22  35  60  88 121 160 208 244 302 372
#
# _framework density 22.79346
#
# number of rings (size 3 to 8) (size 9 to 14) (size 15 to 20)
#    0.000    2.000    1.667    1.500    7.000    0.000 
#    0.000    0.833    0.000   36.000    0.000    0.000 
#    0.000    0.000    0.000    0.000    0.000    0.000 
#
# Total GULP energy -267986.482359 kJ/mol
# GULP energy per Si atom -5583.051716 kJ/mol
# Density = 2.274158 g / cm^3
# Si number density = 22.793460 Si / 1000 Ang^3
#
#
#
# Elastic Constant Matrix: (Units=GPa)
#
#
# Indices 1 2 3 4 5 6 
#
# 1 89.8888 13.5843 5.4303 0.0000 0.0000 0.0000
# 2 13.5843 40.9540 -9.6863 0.0000 0.0000 0.0000
# 3 5.4303 -9.6863 39.5804 0.0000 0.0000 0.0000
# 4 0.0000 0.0000 0.0000 -3.7497 0.0000 0.0000
# 5 0.0000 0.0000 0.0000 0.0000 30.9121 0.0000
# 6 0.0000 0.0000 0.0000 0.0000 0.0000 15.6664
#
#
#
# Elastic Compliance Matrix: (Units=1/GPa)
#
#
# Indices 1 2 3 4 5 6 
#
# 1 0.011993 -0.004636 -0.002780 0.000000 0.000000 0.000000
# 2 -0.004636 0.027710 0.007417 0.000000 0.000000 0.000000
# 3 -0.002780 0.007417 0.027462 0.000000 0.000000 0.000000
# 4 0.000000 0.000000 0.000000 -0.266690 0.000000 0.000000
# 5 0.000000 0.000000 0.000000 0.000000 0.032350 0.000000
# 6 0.000000 0.000000 0.000000 0.000000 0.000000 0.063831
#
#
# Mechanical properties :
#
#
# Convention : Reuss Voigt Hill
#
# Bulk Modulus (GPa) = 14.88807 21.00885 17.94846
# Shear Modulus (GPa) = -61.75992 19.30543 -21.22725
#
# Velocity S-wave (km/s) = -5.21098 2.91344 -3.05501
# Velocity P-wave (km/s) = 5.44608 4.53371 2.13369
#
# Compressibility (1/GPa) = 0.06716787
#
# Stress axis : x y z
#
# Youngs Moduli (GPa) = 83.37954 36.08860 36.41450
#
# Poissons Ratio (x) = 0.16729 0.10123
# Poissons Ratio (y) = 0.38652 -0.27009
# Poissons Ratio (z) = 0.23179 -0.26768
#
# Static dielectric constant tensor:
#      x y z
#    x 1.849220 0.000000 0.000000 
#    y 0.000000 1.854260 0.000000 
#    z 0.000000 0.000000 1.917600 
# 
# From -- ./inp_files/12036.got.cif
#   From: 2010.05.17/outbox.cif.g08.bks.cpg/sg73_7_cif.got.tgz:12036.got - 2010.06.03 17:35:07.
