data_PCOD9530004
_publ_section_title
;
Structure prediction by ZEFSAII (Michael W. Deem and Ramdas Pophale) SiO2 
 PCOD9530004
Probable space group: I B C A 
;
_chemical_formula_sum "Si O2"
_cell_formula_units_Z 104
_cell_length_a 16.796464
_cell_length_b 19.950769
_cell_length_c 13.647994
_cell_angle_alpha 90.000000
_cell_angle_beta 90.000000
_cell_angle_gamma 90.000000
_cell_volume 4573.475180
_symmetry_space_group_name_H-M "I B C A "
_symmetry_group_IT_number 73
_symmetry_cell_setting 'orthorhombic'
loop_
_space_group_symop_operation_xyz
x,y,z
-x,1/2-y,z
x,-y,1/2-z
1/2-x,y,-z
-x,-y,-z
x,1/2+y,-z
-x,y,1/2+z
1/2+x,-y,z
1/2+x,1/2+y,1/2+z
1/2-x,-y,1/2+z
1/2+x,1/2-y,-z
-x,1/2+y,1/2-z
1/2-x,1/2-y,1/2-z
1/2+x,y,1/2-z
1/2-x,1/2+y,z
x,1/2-y,1/2+z
loop_
_atom_site_type_symbol
_atom_site_label
_atom_site_fract_x
_atom_site_fract_y
_atom_site_fract_z
Si Si1 0.546650 0.631946 0.677333
Si Si2 0.105543 0.372440 0.044901
Si Si3 0.632304 0.500000 0.750000
Si Si4 0.285606 0.444658 0.820468
Si Si5 0.677013 0.680406 0.312528
Si Si6 0.332470 0.236366 0.883397
Si Si7 0.495414 0.826123 0.385022
O O1 0.459997 0.626538 0.630773
O O2 0.582294 0.559496 0.702490
O O3 0.604256 0.676288 0.609012
O O4 0.534222 0.670757 0.778435
O O5 0.169553 0.427114 0.079657
O O6 0.148528 0.299930 0.048836
O O7 0.050068 0.374920 0.949885
O O8 0.694985 0.530392 0.829185
O O9 0.326692 0.500000 0.750000
O O10 0.284886 0.378960 0.752037
O O11 0.659108 0.735230 0.228513
O O12 0.743109 0.708757 0.385746
O O13 0.597322 0.657886 0.367766
O O14 0.500000 0.750000 0.424295
#
# Coordination Sequence:
#
# PCOD9530004 Si02
#       7
#    16  16   8  16  16  16  16
#     4  12  21  41  64  96 130 174 224 281 344 403
#     4  11  24  38  69  98 130 173 227 281 347 409
#     4  10  24  38  72  86 124 188 228 276 334 400
#     4   9  19  42  63  88 124 175 226 270 328 396
#     4  10  19  35  68  91 125 172 216 271 341 399
#     4  10  18  38  65  93 125 173 217 271 348 404
#     4  12  23  40  64 105 140 169 219 289 353 410
#
# _framework density 22.739820000000002
#
# number of rings (size 3 to 8) (size 9 to 14) (size 15 to 20)
#    0.462    0.923    6.154    1.385    1.077    0.000 
#    0.000    8.462    3.385    0.000    0.000    0.000 
#    0.000    0.000    0.000    0.000    0.000    0.000 
#
# Total GULP energy -290480.746335 kJ/mol
# GULP energy per Si atom -5586.168199 kJ/mol
# Density = 2.268806 g / cm^3
# Si number density = 22.739820 Si / 1000 Ang^3
#
#
#
# Elastic Constant Matrix: (Units=GPa)
#
#
# Indices 1 2 3 4 5 6 
#
# 1 112.3768 34.5245 13.0025 0.0000 0.0000 0.0000
# 2 34.5245 83.7998 -9.2998 0.0000 0.0000 0.0000
# 3 13.0025 -9.2998 61.9368 0.0000 0.0000 0.0000
# 4 0.0000 0.0000 0.0000 3.2161 0.0000 0.0000
# 5 0.0000 0.0000 0.0000 0.0000 10.4871 0.0000
# 6 0.0000 0.0000 0.0000 0.0000 0.0000 31.2971
#
#
#
# Elastic Compliance Matrix: (Units=1/GPa)
#
#
# Indices 1 2 3 4 5 6 
#
# 1 0.010695 -0.004734 -0.002956 0.000000 0.000000 0.000000
# 2 -0.004734 0.014231 0.003131 0.000000 0.000000 0.000000
# 3 -0.002956 0.003131 0.017236 0.000000 0.000000 0.000000
# 4 0.000000 0.000000 0.000000 0.310934 0.000000 0.000000
# 5 0.000000 0.000000 0.000000 0.000000 0.095355 0.000000
# 6 0.000000 0.000000 0.000000 0.000000 0.000000 0.031952
#
#
# Mechanical properties :
#
#
# Convention : Reuss Voigt Hill
#
# Bulk Modulus (GPa) = 30.26368 37.17421 33.71894
# Shear Modulus (GPa) = 9.98928 23.65913 16.82421
#
# Velocity S-wave (km/s) = 2.09819 3.22907 2.72298
# Velocity P-wave (km/s) = 4.38263 5.50324 4.97459
#
# Compressibility (1/GPa) = 0.03304291
#
# Stress axis : x y z
#
# Youngs Moduli (GPa) = 93.50019 70.26845 58.01761
#
# Poissons Ratio (x) = 0.33268 0.17151
# Poissons Ratio (y) = 0.44266 -0.18164
# Poissons Ratio (z) = 0.27640 -0.21999
#
# Static dielectric constant tensor:
#      x y z
#    x 1.849020 0.000000 0.000000 
#    y 0.000000 1.878850 0.000000 
#    z 0.000000 0.000000 1.932480 
# 
# From -- ./inp_files/18135.got.cif
#   From: 2010.05.17/outbox.cif.g08.bks.cpg/sg73_10_cif.got.tgz:18135.got - 2010.06.03 17:35:07.
