data_PCOD9530504
_publ_section_title
;
Structure prediction by ZEFSAII (Michael W. Deem and Ramdas Pophale) SiO2 
 PCOD9530504
Probable space group: I B C A 
;
_chemical_formula_sum "Si O2"
_cell_formula_units_Z 96
_cell_length_a 14.532448
_cell_length_b 19.283757
_cell_length_c 16.514651
_cell_angle_alpha 90.000000
_cell_angle_beta 90.000000
_cell_angle_gamma 90.000000
_cell_volume 4628.069031
_symmetry_space_group_name_H-M "I B C A "
_symmetry_group_IT_number 73
_symmetry_cell_setting 'orthorhombic'
loop_
_space_group_symop_operation_xyz
x,y,z
-x,1/2-y,z
x,-y,1/2-z
1/2-x,y,-z
-x,-y,-z
x,1/2+y,-z
-x,y,1/2+z
1/2+x,-y,z
1/2+x,1/2+y,1/2+z
1/2-x,-y,1/2+z
1/2+x,1/2-y,-z
-x,1/2+y,1/2-z
1/2-x,1/2-y,1/2-z
1/2+x,y,1/2-z
1/2-x,1/2+y,z
x,1/2-y,1/2+z
loop_
_atom_site_type_symbol
_atom_site_label
_atom_site_fract_x
_atom_site_fract_y
_atom_site_fract_z
Si Si1 0.234421 0.980748 0.162953
Si Si2 0.519587 0.827536 0.706150
Si Si3 0.049312 0.043591 0.110907
Si Si4 0.838924 0.665347 0.200598
Si Si5 0.314627 0.318416 0.675958
Si Si6 0.888306 0.445055 0.926238
O O1 0.202570 0.901670 0.158252
O O2 0.279163 0.000000 0.250000
O O3 0.141038 0.025392 0.159856
O O4 0.304908 0.002627 0.093804
O O5 0.500000 0.750000 0.673815
O O6 0.502069 0.888919 0.644051
O O7 0.446273 0.838894 0.778786
O O8 0.619604 0.828791 0.745859
O O9 0.084601 0.057045 0.019916
O O10 0.978743 0.979011 0.114715
O O11 0.786854 0.670098 0.287937
O O12 0.822357 0.737503 0.154200
O O13 0.351163 0.372549 0.610003
#
# Coordination Sequence:
#
# PCOD9530504 Si02
#       6
#    16  16  16  16  16  16
#     4  12  21  36  64  91 118 162 208 252 303 362
#     4  10  20  36  58  85 116 155 200 252 296 358
#     4  11  24  39  58  88 128 160 203 251 308 375
#     4  10  20  34  57  93 112 149 206 251 295 350
#     4  10  20  36  59  85 121 150 205 252 296 361
#     4  11  24  39  58  90 123 165 197 254 313 368
#
# _framework density 20.742992000000001
#
# number of rings (size 3 to 8) (size 9 to 14) (size 15 to 20)
#    0.000    1.333    3.333    2.500    0.000    0.000 
#    0.000    5.833    0.000    6.000    0.000    0.000 
#    0.000    0.000    0.000    0.000    0.000    0.000 
#
# Total GULP energy -268191.643804 kJ/mol
# GULP energy per Si atom -5587.325913 kJ/mol
# Density = 2.069578 g / cm^3
# Si number density = 20.742992 Si / 1000 Ang^3
#
#
#
# Elastic Constant Matrix: (Units=GPa)
#
#
# Indices 1 2 3 4 5 6 
#
# 1 69.1046 19.1184 4.8135 0.0000 0.0000 0.0000
# 2 19.1184 178.6023 41.0718 0.0000 0.0000 0.0000
# 3 4.8135 41.0718 35.4559 0.0000 0.0000 0.0000
# 4 0.0000 0.0000 0.0000 24.0856 0.0000 0.0000
# 5 0.0000 0.0000 0.0000 0.0000 31.5108 0.0000
# 6 0.0000 0.0000 0.0000 0.0000 0.0000 32.9505
#
#
#
# Elastic Compliance Matrix: (Units=1/GPa)
#
#
# Indices 1 2 3 4 5 6 
#
# 1 0.014914 -0.001541 -0.000239 0.000000 0.000000 0.000000
# 2 -0.001541 0.007791 -0.008816 0.000000 0.000000 0.000000
# 3 -0.000239 -0.008816 0.038449 0.000000 0.000000 0.000000
# 4 0.000000 0.000000 0.000000 0.041519 0.000000 0.000000
# 5 0.000000 0.000000 0.000000 0.000000 0.031735 0.000000
# 6 0.000000 0.000000 0.000000 0.000000 0.000000 0.030349
#
#
# Mechanical properties :
#
#
# Convention : Reuss Voigt Hill
#
# Bulk Modulus (GPa) = 25.02447 45.90781 35.46614
# Shear Modulus (GPa) = 25.09147 32.25332 28.67240
#
# Velocity S-wave (km/s) = 3.48176 3.94750 3.72192
# Velocity P-wave (km/s) = 5.31542 6.55414 5.96702
#
# Compressibility (1/GPa) = 0.03996089
#
# Stress axis : x y z
#
# Youngs Moduli (GPa) = 67.05139 128.34582 26.00834
#
# Poissons Ratio (x) = 0.19784 0.00622
# Poissons Ratio (y) = 0.10336 0.22930
# Poissons Ratio (z) = 0.01603 1.13153
#
# Static dielectric constant tensor:
#      x y z
#    x 1.731980 0.000000 0.000000 
#    y 0.000000 1.778420 0.000000 
#    z 0.000000 0.000000 1.728320 
# 
# From -- ./inp_files/17068.got.cif
#   From: 2010.05.17/outbox.cif.g08.bks.cpg/sg73_9_cif.got.tgz:17068.got - 2010.06.03 17:35:07.
