data_PCOD9531884
_publ_section_title
;
Structure prediction by ZEFSAII (Michael W. Deem and Ramdas Pophale) SiO2 
 PCOD9531884
Probable space group: I B C A 
;
_chemical_formula_sum "Si O2"
_cell_formula_units_Z 96
_cell_length_a 22.009583
_cell_length_b 24.394886
_cell_length_c 8.762759
_cell_angle_alpha 90.000000
_cell_angle_beta 90.000000
_cell_angle_gamma 90.000000
_cell_volume 4704.911675
_symmetry_space_group_name_H-M "I B C A "
_symmetry_group_IT_number 73
_symmetry_cell_setting 'orthorhombic'
loop_
_space_group_symop_operation_xyz
x,y,z
-x,1/2-y,z
x,-y,1/2-z
1/2-x,y,-z
-x,-y,-z
x,1/2+y,-z
-x,y,1/2+z
1/2+x,-y,z
1/2+x,1/2+y,1/2+z
1/2-x,-y,1/2+z
1/2+x,1/2-y,-z
-x,1/2+y,1/2-z
1/2-x,1/2-y,1/2-z
1/2+x,y,1/2-z
1/2-x,1/2+y,z
x,1/2-y,1/2+z
loop_
_atom_site_type_symbol
_atom_site_label
_atom_site_fract_x
_atom_site_fract_y
_atom_site_fract_z
Si Si1 0.946104 0.812797 0.345025
Si Si2 0.934462 0.489561 0.928904
Si Si3 0.420763 0.298612 0.485912
Si Si4 0.874432 0.903579 0.874729
Si Si5 0.715030 0.500000 0.750000
Si Si6 0.882560 0.401658 0.465295
Si Si7 0.750000 0.078323 0.000000
O O1 0.911407 0.764373 0.437628
O O2 0.919677 0.868936 0.410080
O O3 0.016855 0.811578 0.392867
O O4 0.935619 0.804123 0.165433
O O5 0.936227 0.500000 0.750000
O O6 0.889522 0.534512 0.999402
O O7 0.913699 0.431072 0.991457
O O8 0.000000 0.500000 0.000000
O O9 0.368006 0.341197 0.435374
O O10 0.824008 0.950805 0.833684
O O11 0.904894 0.895166 0.708163
O O12 0.755940 0.536468 0.859935
O O13 0.811248 0.387831 0.475337
#
# Coordination Sequence:
#
# PCOD9531884 Si02
#       7
#    16  16  16  16   8  16   8
#     4  11  22  39  59  95 119 165 202 246 306 370
#     4  12  23  35  55  86 122 157 195 244 305 365
#     4  11  22  37  64  88 128 158 200 250 304 375
#     4  11  20  40  56  86 118 162 196 248 305 357
#     4  10  22  40  62  84 122 156 210 252 308 364
#     4  11  22  39  60  86 121 158 201 251 302 362
#     4  10  22  38  64  84 118 164 202 258 298 368
#
# _framework density 20.404208000000001
#
# number of rings (size 3 to 8) (size 9 to 14) (size 15 to 20)
#    0.000    1.000    3.333    7.000    1.167    1.333 
#    0.000    0.000    0.000   10.000    0.000    0.000 
#    0.000    0.000    0.000    0.000    0.000    0.000 
#
# Total GULP energy -267550.076872 kJ/mol
# GULP energy per Si atom -5573.959935 kJ/mol
# Density = 2.035777 g / cm^3
# Si number density = 20.404208 Si / 1000 Ang^3
#
#
#
# Elastic Constant Matrix: (Units=GPa)
#
#
# Indices 1 2 3 4 5 6 
#
# 1 32.3261 -0.9327 -3.3027 0.0000 0.0000 0.0000
# 2 -0.9327 78.9283 7.8666 0.0000 0.0000 0.0000
# 3 -3.3027 7.8666 159.7091 0.0000 0.0000 0.0000
# 4 0.0000 0.0000 0.0000 33.7797 0.0000 0.0000
# 5 0.0000 0.0000 0.0000 0.0000 19.6220 0.0000
# 6 0.0000 0.0000 0.0000 0.0000 0.0000 -49.9496
#
#
#
# Elastic Compliance Matrix: (Units=1/GPa)
#
#
# Indices 1 2 3 4 5 6 
#
# 1 0.031008 0.000304 0.000626 0.000000 0.000000 0.000000
# 2 0.000304 0.012735 -0.000621 0.000000 0.000000 0.000000
# 3 0.000626 -0.000621 0.006305 0.000000 0.000000 0.000000
# 4 0.000000 0.000000 0.000000 0.029604 0.000000 0.000000
# 5 0.000000 0.000000 0.000000 0.000000 0.050963 0.000000
# 6 0.000000 0.000000 0.000000 0.000000 0.000000 -0.020020
#
#
# Mechanical properties :
#
#
# Convention : Reuss Voigt Hill
#
# Bulk Modulus (GPa) = 19.73705 30.91400 25.32552
# Shear Modulus (GPa) = 39.41212 18.51257 28.96235
#
# Velocity S-wave (km/s) = 4.39973 3.01540 3.77162
# Velocity P-wave (km/s) = 5.95854 5.22563 5.60408
#
# Compressibility (1/GPa) = 0.05066613
#
# Stress axis : x y z
#
# Youngs Moduli (GPa) = 32.25023 78.52243 158.60620
#
# Poissons Ratio (x) = -0.02387 -0.09933
# Poissons Ratio (y) = -0.00980 0.09849
# Poissons Ratio (z) = -0.02020 0.04876
#
# Static dielectric constant tensor:
#      x y z
#    x 1.672160 0.000000 0.000000 
#    y 0.000000 1.745030 0.000000 
#    z 0.000000 0.000000 1.760410 
# 
# From -- ./inp_files/7969.got.cif
#   From: 2010.05.17/outbox.cif.g08.bks.cpg/sg73_4_cif.got.tgz:7969.got - 2010.06.03 17:35:07.
