data_PCOD9531063
_publ_section_title
;
Structure prediction by ZEFSAII (Michael W. Deem and Ramdas Pophale) SiO2 
 PCOD9531063
Probable space group: I B C A 
;
_chemical_formula_sum "Si O2"
_cell_formula_units_Z 96
_cell_length_a 23.773690
_cell_length_b 25.751116
_cell_length_c 8.909473
_cell_angle_alpha 90.000000
_cell_angle_beta 90.000000
_cell_angle_gamma 90.000000
_cell_volume 5454.370897
_symmetry_space_group_name_H-M "I B C A "
_symmetry_group_IT_number 73
_symmetry_cell_setting 'orthorhombic'
loop_
_space_group_symop_operation_xyz
x,y,z
-x,1/2-y,z
x,-y,1/2-z
1/2-x,y,-z
-x,-y,-z
x,1/2+y,-z
-x,y,1/2+z
1/2+x,-y,z
1/2+x,1/2+y,1/2+z
1/2-x,-y,1/2+z
1/2+x,1/2-y,-z
-x,1/2+y,1/2-z
1/2-x,1/2-y,1/2-z
1/2+x,y,1/2-z
1/2-x,1/2+y,z
x,1/2-y,1/2+z
loop_
_atom_site_type_symbol
_atom_site_label
_atom_site_fract_x
_atom_site_fract_y
_atom_site_fract_z
Si Si1 0.937180 0.094137 0.701157
Si Si2 0.477642 0.000000 0.250000
Si Si3 0.290585 0.557359 0.695484
Si Si4 0.330576 0.053059 0.647732
Si Si5 0.102779 0.914585 0.628748
Si Si6 0.466765 0.324646 0.754934
Si Si7 0.500000 0.750000 0.995882
O O1 0.889090 0.081910 0.821925
O O2 0.906260 0.100923 0.542682
O O3 0.973725 0.144677 0.739992
O O4 0.980638 0.045143 0.689443
O O5 0.434291 0.967274 0.352712
O O6 0.278082 0.500000 0.750000
O O7 0.319639 0.549325 0.531740
O O8 0.228037 0.581623 0.693475
O O9 0.334201 0.579077 0.815158
O O10 0.336586 0.000000 0.750000
O O11 0.077082 0.870613 0.736438
O O12 0.464684 0.287306 0.611762
O O13 0.463825 0.287738 0.898423
#
# Coordination Sequence:
#
# PCOD9531063 Si02
#       7
#    16   8  16  16  16  16   8
#     4  11  21  34  52  83 111 150 180 221 264 333
#     4  10  22  30  50  76 122 146 174 216 262 318
#     4  10  21  35  52  75 109 151 189 224 262 310
#     4  10  21  35  52  75 109 151 189 224 262 310
#     4  11  21  34  52  83 111 150 180 221 264 333
#     4  10  22  36  60  82 112 138 184 218 290 326
#     4  10  20  42  56  80 110 142 172 242 272 338
#
# _framework density 17.600562
#
# number of rings (size 3 to 8) (size 9 to 14) (size 15 to 20)
#    0.000    1.667    3.333    1.500    2.333    3.333 
#    0.000    0.000    0.000    0.000    0.000    7.000 
#    0.000    0.000    0.000    0.000    0.000    0.000 
#
# Total GULP energy -267256.041503 kJ/mol
# GULP energy per Si atom -5567.834198 kJ/mol
# Density = 1.756050 g / cm^3
# Si number density = 17.600562 Si / 1000 Ang^3
#
#
#
# Elastic Constant Matrix: (Units=GPa)
#
#
# Indices 1 2 3 4 5 6 
#
# 1 70.7145 21.6052 -1.8918 0.0000 0.0000 0.0000
# 2 21.6052 67.4097 11.9438 0.0000 0.0000 0.0000
# 3 -1.8918 11.9438 35.5404 0.0000 0.0000 0.0000
# 4 0.0000 0.0000 0.0000 23.6054 0.0000 0.0000
# 5 0.0000 0.0000 0.0000 0.0000 -146.0789 0.0000
# 6 0.0000 0.0000 0.0000 0.0000 0.0000 0.1153
#
#
#
# Elastic Compliance Matrix: (Units=1/GPa)
#
#
# Indices 1 2 3 4 5 6 
#
# 1 0.015921 -0.005585 0.002725 0.000000 0.000000 0.000000
# 2 -0.005585 0.017733 -0.006257 0.000000 0.000000 0.000000
# 3 0.002725 -0.006257 0.030385 0.000000 0.000000 0.000000
# 4 0.000000 0.000000 0.000000 0.042363 0.000000 0.000000
# 5 0.000000 0.000000 0.000000 0.000000 -0.006846 0.000000
# 6 0.000000 0.000000 0.000000 0.000000 0.000000 8.673851
#
#
# Mechanical properties :
#
#
# Convention : Reuss Voigt Hill
#
# Bulk Modulus (GPa) = 21.83247 26.33101 24.08174
# Shear Modulus (GPa) = 0.56774 -15.00449 -7.21838
#
# Velocity S-wave (km/s) = 0.56857 -2.92293 -2.02734
# Velocity P-wave (km/s) = 3.58641 1.89775 2.86913
#
# Compressibility (1/GPa) = 0.04580335
#
# Stress axis : x y z
#
# Youngs Moduli (GPa) = 62.81107 56.39063 32.91127
#
# Poissons Ratio (x) = 0.31497 -0.08967
# Poissons Ratio (y) = 0.35083 0.20592
# Poissons Ratio (z) = -0.17113 0.35283
#
# Static dielectric constant tensor:
#      x y z
#    x 1.626630 0.000000 0.000000 
#    y 0.000000 1.591590 0.000000 
#    z 0.000000 0.000000 1.655930 
# 
# From -- ./inp_files/7285.got.cif
#   From: 2010.05.17/outbox.cif.g08.bks.cpg/sg73_4_cif.got.tgz:7285.got - 2010.06.03 17:35:07.
