data_PCOD9531665
_publ_section_title
;
Structure prediction by ZEFSAII (Michael W. Deem and Ramdas Pophale) SiO2 
 PCOD9531665
Probable space group: I B C A 
;
_chemical_formula_sum "Si O2"
_cell_formula_units_Z 88
_cell_length_a 17.136531
_cell_length_b 8.612620
_cell_length_c 25.466083
_cell_angle_alpha 90.000000
_cell_angle_beta 90.000000
_cell_angle_gamma 90.000000
_cell_volume 3758.550131
_symmetry_space_group_name_H-M "I B C A "
_symmetry_group_IT_number 73
_symmetry_cell_setting 'orthorhombic'
loop_
_space_group_symop_operation_xyz
x,y,z
-x,1/2-y,z
x,-y,1/2-z
1/2-x,y,-z
-x,-y,-z
x,1/2+y,-z
-x,y,1/2+z
1/2+x,-y,z
1/2+x,1/2+y,1/2+z
1/2-x,-y,1/2+z
1/2+x,1/2-y,-z
-x,1/2+y,1/2-z
1/2-x,1/2-y,1/2-z
1/2+x,y,1/2-z
1/2-x,1/2+y,z
x,1/2-y,1/2+z
loop_
_atom_site_type_symbol
_atom_site_label
_atom_site_fract_x
_atom_site_fract_y
_atom_site_fract_z
Si Si1 0.632899 0.922854 0.304038
Si Si2 0.641047 0.068794 0.478000
Si Si3 0.500000 0.250000 0.932862
Si Si4 0.782040 0.910209 0.194132
Si Si5 0.500000 0.250000 0.132979
Si Si6 0.250000 0.169290 0.500000
Si Si7 0.886222 0.498744 0.902953
O O1 0.692634 0.056786 0.323575
O O2 0.686860 0.766417 0.298974
O O3 0.557126 0.864215 0.334709
O O4 0.605053 0.000000 0.250000
O O5 0.553796 0.123373 0.464207
O O6 0.695474 0.214767 0.466775
O O7 0.649692 0.024173 0.539582
O O8 0.689261 0.917436 0.459574
O O9 0.437944 0.347411 0.900554
O O10 0.792194 0.000000 0.250000
O O11 0.832313 0.983298 0.147344
O O12 0.554979 0.355272 0.098956
#
# Coordination Sequence:
#
# PCOD9531665 Si02
#       7
#    16  16   8  16   8   8  16
#     4  10  21  42  68  95 129 177 219 277 332 384
#     4  11  23  45  65  99 131 178 221 285 338 411
#     4  12  25  44  69  98 134 180 223 282 347 408
#     4  10  22  42  67  97 131 172 223 275 324 394
#     4  10  25  40  59 100 136 174 217 272 335 406
#     4  10  24  42  68  96 134 172 228 276 344 402
#     4  11  25  42  65  98 132 180 223 277 341 401
#
# _framework density 23.413284000000001
#
# number of rings (size 3 to 8) (size 9 to 14) (size 15 to 20)
#    0.000    1.455    1.818    3.273    2.545    8.727 
#    3.273    0.909    0.000    0.000    0.000    0.000 
#    0.000    0.000    0.000    0.000    0.000    0.000 
#
# Total GULP energy -245308.715538 kJ/mol
# GULP energy per Si atom -5575.198080 kJ/mol
# Density = 2.335999 g / cm^3
# Si number density = 23.413284 Si / 1000 Ang^3
#
#
#
# Elastic Constant Matrix: (Units=GPa)
#
#
# Indices 1 2 3 4 5 6 
#
# 1 76.3672 1.8126 12.9606 0.0000 0.0000 0.0000
# 2 1.8126 76.8140 10.3266 0.0000 0.0000 0.0000
# 3 12.9606 10.3266 64.5303 0.0000 0.0000 0.0000
# 4 0.0000 0.0000 0.0000 30.0661 0.0000 0.0000
# 5 0.0000 0.0000 0.0000 0.0000 5.0860 0.0000
# 6 0.0000 0.0000 0.0000 0.0000 0.0000 58.8765
#
#
#
# Elastic Compliance Matrix: (Units=1/GPa)
#
#
# Indices 1 2 3 4 5 6 
#
# 1 0.013557 0.000047 -0.002730 0.000000 0.000000 0.000000
# 2 0.000047 0.013305 -0.002139 0.000000 0.000000 0.000000
# 3 -0.002730 -0.002139 0.016387 0.000000 0.000000 0.000000
# 4 0.000000 0.000000 0.000000 0.033260 0.000000 0.000000
# 5 0.000000 0.000000 0.000000 0.000000 0.196617 0.000000
# 6 0.000000 0.000000 0.000000 0.000000 0.000000 0.016985
#
#
# Mechanical properties :
#
#
# Convention : Reuss Voigt Hill
#
# Bulk Modulus (GPa) = 29.75724 29.76792 29.76258
# Shear Modulus (GPa) = 16.07946 31.64650 23.86298
#
# Velocity S-wave (km/s) = 2.62347 3.68046 3.19597
# Velocity P-wave (km/s) = 4.68123 5.55003 5.13404
#
# Compressibility (1/GPa) = 0.03360527
#
# Stress axis : x y z
#
# Youngs Moduli (GPa) = 73.76324 75.16053 61.02319
#
# Poissons Ratio (x) = -0.00354 0.16662
# Poissons Ratio (y) = -0.00348 0.13050
# Poissons Ratio (z) = 0.20140 0.16074
#
# Static dielectric constant tensor:
#      x y z
#    x 1.958560 0.000000 0.000000 
#    y 0.000000 1.926050 0.000000 
#    z 0.000000 0.000000 1.894270 
# 
# From -- ./inp_files/34521.got.cif
#   From: 2010.05.17/outbox.cif.g08.bks.cpg/sg73_18_cif.got.tgz:34521.got - 2010.06.03 17:35:07.
