data_PCOD9531218
_publ_section_title
;
Structure prediction by ZEFSAII (Michael W. Deem and Ramdas Pophale) SiO2 
 PCOD9531218
Probable space group: I B C A 
;
_chemical_formula_sum "Si O2"
_cell_formula_units_Z 120
_cell_length_a 30.282001
_cell_length_b 8.878383
_cell_length_c 24.457056
_cell_angle_alpha 90.000000
_cell_angle_beta 90.000000
_cell_angle_gamma 90.000000
_cell_volume 6575.406753
_symmetry_space_group_name_H-M "I B C A "
_symmetry_group_IT_number 73
_symmetry_cell_setting 'orthorhombic'
loop_
_space_group_symop_operation_xyz
x,y,z
-x,1/2-y,z
x,-y,1/2-z
1/2-x,y,-z
-x,-y,-z
x,1/2+y,-z
-x,y,1/2+z
1/2+x,-y,z
1/2+x,1/2+y,1/2+z
1/2-x,-y,1/2+z
1/2+x,1/2-y,-z
-x,1/2+y,1/2-z
1/2-x,1/2-y,1/2-z
1/2+x,y,1/2-z
1/2-x,1/2+y,z
x,1/2-y,1/2+z
loop_
_atom_site_type_symbol
_atom_site_label
_atom_site_fract_x
_atom_site_fract_y
_atom_site_fract_z
Si Si1 0.858551 0.070581 0.409751
Si Si2 0.293713 0.565858 0.810921
Si Si3 0.542304 0.457263 0.932911
Si Si4 0.250000 0.295917 0.000000
Si Si5 0.312369 0.953025 0.525052
Si Si6 0.444544 0.102100 0.448561
Si Si7 0.297382 0.424582 0.191114
Si Si8 0.623978 0.422367 0.608399
O O1 0.832289 0.032349 0.354365
O O2 0.825848 0.052950 0.461472
O O3 0.872951 0.246012 0.406817
O O4 0.901005 0.967804 0.421686
O O5 0.301563 0.500000 0.750000
O O6 0.247264 0.499152 0.832211
O O7 0.290036 0.745846 0.805545
O O8 0.553984 0.282474 0.943979
O O9 0.489942 0.461337 0.922458
O O10 0.573731 0.525050 0.886307
O O11 0.552382 0.552318 0.987966
O O12 0.217864 0.191266 0.035424
O O13 0.281627 0.402508 0.034862
O O14 0.355882 0.975342 0.559754
O O15 0.302607 0.500000 0.250000
O O16 0.341793 0.449626 0.157034
#
# Coordination Sequence:
#
# PCOD9531218 Si02
#       8
#    16  16  16   8  16  16  16  16
#     4  11  23  36  56  82 112 144 186 228 274 332
#     4  10  22  39  57  81 110 147 191 232 275 322
#     4  10  21  36  55  81 113 147 183 225 275 333
#     4  10  24  34  48  66 116 150 180 218 260 328
#     4  11  22  36  47  78 108 146 183 216 269 324
#     4  10  21  36  55  81 113 147 183 225 275 333
#     4  10  22  39  57  81 110 147 191 232 275 322
#     4  11  23  36  56  82 112 144 186 228 274 332
#
# _framework density 18.249822000000002
#
# number of rings (size 3 to 8) (size 9 to 14) (size 15 to 20)
#    0.000    1.600    2.667    2.400    5.600    3.733 
#    0.000    0.000    0.000    0.800    0.000    0.000 
#    0.000    0.000    0.000    0.000    0.000    0.000 
#
# Total GULP energy -335065.042480 kJ/mol
# GULP energy per Si atom -5584.417375 kJ/mol
# Density = 1.820828 g / cm^3
# Si number density = 18.249822 Si / 1000 Ang^3
#
#
#
# Elastic Constant Matrix: (Units=GPa)
#
#
# Indices 1 2 3 4 5 6 
#
# 1 128.5811 44.5109 36.9918 0.0000 0.0000 0.0000
# 2 44.5109 75.0560 24.6645 0.0000 0.0000 0.0000
# 3 36.9918 24.6645 57.0364 0.0000 0.0000 0.0000
# 4 0.0000 0.0000 0.0000 17.2093 0.0000 0.0000
# 5 0.0000 0.0000 0.0000 0.0000 22.2433 0.0000
# 6 0.0000 0.0000 0.0000 0.0000 0.0000 34.7323
#
#
#
# Elastic Compliance Matrix: (Units=1/GPa)
#
#
# Indices 1 2 3 4 5 6 
#
# 1 0.010874 -0.004815 -0.004970 0.000000 0.000000 0.000000
# 2 -0.004815 0.017663 -0.004515 0.000000 0.000000 0.000000
# 3 -0.004970 -0.004515 0.022709 0.000000 0.000000 0.000000
# 4 0.000000 0.000000 0.000000 0.058108 0.000000 0.000000
# 5 0.000000 0.000000 0.000000 0.000000 0.044957 0.000000
# 6 0.000000 0.000000 0.000000 0.000000 0.000000 0.028792
#
#
# Mechanical properties :
#
#
# Convention : Reuss Voigt Hill
#
# Bulk Modulus (GPa) = 44.16101 52.55643 48.35872
# Shear Modulus (GPa) = 22.80486 25.13739 23.97112
#
# Velocity S-wave (km/s) = 3.53879 3.71537 3.62815
# Velocity P-wave (km/s) = 6.39906 6.87504 6.64131
#
# Compressibility (1/GPa) = 0.02264441
#
# Stress axis : x y z
#
# Youngs Moduli (GPa) = 91.96231 56.61623 44.03632
#
# Poissons Ratio (x) = 0.27263 0.21887
# Poissons Ratio (y) = 0.44284 0.19882
# Poissons Ratio (z) = 0.45707 0.25562
#
# Static dielectric constant tensor:
#      x y z
#    x 1.652470 0.000000 0.000000 
#    y 0.000000 1.638110 0.000000 
#    z 0.000000 0.000000 1.631620 
# 
# From -- ./inp_files/33066.got.cif
#   From: 2010.05.17/outbox.cif.g08.bks.cpg/sg73_17_cif.got.tgz:33066.got - 2010.06.03 17:35:07.
