data_PCOD9531922
_publ_section_title
;
Structure prediction by ZEFSAII (Michael W. Deem and Ramdas Pophale) SiO2 
 PCOD9531922
Probable space group: I B C A 
;
_chemical_formula_sum "Si O2"
_cell_formula_units_Z 88
_cell_length_a 13.616432
_cell_length_b 25.930379
_cell_length_c 10.786331
_cell_angle_alpha 90.000000
_cell_angle_beta 90.000000
_cell_angle_gamma 90.000000
_cell_volume 3808.429578
_symmetry_space_group_name_H-M "I B C A "
_symmetry_group_IT_number 73
_symmetry_cell_setting 'orthorhombic'
loop_
_space_group_symop_operation_xyz
x,y,z
-x,1/2-y,z
x,-y,1/2-z
1/2-x,y,-z
-x,-y,-z
x,1/2+y,-z
-x,y,1/2+z
1/2+x,-y,z
1/2+x,1/2+y,1/2+z
1/2-x,-y,1/2+z
1/2+x,1/2-y,-z
-x,1/2+y,1/2-z
1/2-x,1/2-y,1/2-z
1/2+x,y,1/2-z
1/2-x,1/2+y,z
x,1/2-y,1/2+z
loop_
_atom_site_type_symbol
_atom_site_label
_atom_site_fract_x
_atom_site_fract_y
_atom_site_fract_z
Si Si1 0.757256 0.827310 0.855803
Si Si2 0.900601 0.743338 0.776470
Si Si3 0.109877 0.000000 0.750000
Si Si4 0.254572 0.413332 0.831875
Si Si5 0.521820 0.090761 0.159320
Si Si6 0.940176 0.855241 0.410938
O O1 0.855548 0.798002 0.812702
O O2 0.675079 0.789564 0.801760
O O3 0.743624 0.883481 0.799331
O O4 0.750000 0.828898 0.000000
O O5 0.929036 0.705914 0.891320
O O6 0.000000 0.750000 0.701766
O O7 0.183293 0.965462 0.831347
O O8 0.041297 0.961782 0.669535
O O9 0.138501 0.421070 0.848939
O O10 0.326843 0.375953 0.911185
O O11 0.489857 0.120344 0.286388
O O12 0.505768 0.124804 0.034760
#
# Coordination Sequence:
#
# PCOD9531922 Si02
#       6
#    16  16   8  16  16  16
#     4  10  23  41  63  95 133 174 223 275 334 407
#     4  10  22  39  62  96 133 178 224 272 337 412
#     4  10  24  42  68 100 124 168 230 276 338 404
#     4  10  22  42  65  91 128 169 215 274 336 398
#     4  11  23  44  66  93 132 171 217 280 336 397
#     4  10  24  41  65  97 131 173 222 269 334 408
#
# _framework density 23.106636999999999
#
# number of rings (size 3 to 8) (size 9 to 14) (size 15 to 20)
#    0.000    1.818    0.000    2.182    0.000   18.182 
#    0.000    7.273    0.000    0.000    0.000    0.000 
#    0.000    0.000    0.000    0.000    0.000    0.000 
#
# Total GULP energy -245682.646456 kJ/mol
# GULP energy per Si atom -5583.696510 kJ/mol
# Density = 2.305404 g / cm^3
# Si number density = 23.106637 Si / 1000 Ang^3
#
#
#
# Elastic Constant Matrix: (Units=GPa)
#
#
# Indices 1 2 3 4 5 6 
#
# 1 164.3243 41.1565 31.9427 0.0000 0.0000 0.0000
# 2 41.1565 99.9500 31.0935 -0.0001 -0.0001 0.0000
# 3 31.9427 31.0935 143.1409 -0.0004 -0.0003 0.0001
# 4 0.0000 -0.0001 -0.0004 28.2105 -0.0001 0.0000
# 5 0.0000 -0.0001 -0.0003 -0.0001 -12.8400 0.0000
# 6 0.0000 0.0000 0.0001 0.0000 0.0000 46.4284
#
#
#
# Elastic Compliance Matrix: (Units=1/GPa)
#
#
# Indices 1 2 3 4 5 6 
#
# 1 0.006914 -0.002539 -0.000991 0.000000 0.000000 0.000000
# 2 -0.002539 0.011662 -0.001967 0.000000 0.000000 0.000000
# 3 -0.000991 -0.001967 0.007635 0.000000 0.000000 0.000000
# 4 0.000000 0.000000 0.000000 0.035448 0.000000 0.000000
# 5 0.000000 0.000000 0.000000 0.000000 -0.077882 0.000000
# 6 0.000000 0.000000 0.000000 0.000000 0.000000 0.021539
#
#
# Mechanical properties :
#
#
# Convention : Reuss Voigt Hill
#
# Bulk Modulus (GPa) = 65.71531 68.42229 67.06880
# Shear Modulus (GPa) = 233.84511 32.57460 133.20985
#
# Velocity S-wave (km/s) = 10.07086 3.75874 7.60100
# Velocity P-wave (km/s) = 12.79576 6.96515 10.30157
#
# Compressibility (1/GPa) = 0.01521715
#
# Stress axis : x y z
#
# Youngs Moduli (GPa) = 144.63265 85.74740 130.98243
#
# Poissons Ratio (x) = 0.21768 0.12987
# Poissons Ratio (y) = 0.36716 0.25762
# Poissons Ratio (z) = 0.14340 0.16865
#
# Static dielectric constant tensor:
#      x y z
#    x 1.938430 0.000000 0.000000 
#    y 0.000000 1.876030 0.000000 
#    z 0.000000 0.000000 1.890180 
# 
# From -- ./inp_files/11170.got.cif
#   From: 2010.05.17/outbox.cif.g08.bks.cpg/sg73_6_cif.got.tgz:11170.got - 2010.06.03 17:35:07.
