data_PCOD9531094
_publ_section_title
;
Structure prediction by ZEFSAII (Michael W. Deem and Ramdas Pophale) SiO2 
 PCOD9531094
Probable space group: I B C A 
;
_chemical_formula_sum "Si O2"
_cell_formula_units_Z 72
_cell_length_a 17.572876
_cell_length_b 9.872485
_cell_length_c 13.997852
_cell_angle_alpha 90.000000
_cell_angle_beta 90.000000
_cell_angle_gamma 90.000000
_cell_volume 2428.458714
_symmetry_space_group_name_H-M "I B C A "
_symmetry_group_IT_number 73
_symmetry_cell_setting 'orthorhombic'
loop_
_space_group_symop_operation_xyz
x,y,z
-x,1/2-y,z
x,-y,1/2-z
1/2-x,y,-z
-x,-y,-z
x,1/2+y,-z
-x,y,1/2+z
1/2+x,-y,z
1/2+x,1/2+y,1/2+z
1/2-x,-y,1/2+z
1/2+x,1/2-y,-z
-x,1/2+y,1/2-z
1/2-x,1/2-y,1/2-z
1/2+x,y,1/2-z
1/2-x,1/2+y,z
x,1/2-y,1/2+z
loop_
_atom_site_type_symbol
_atom_site_label
_atom_site_fract_x
_atom_site_fract_y
_atom_site_fract_z
Si Si1 0.473493 0.382166 0.376564
Si Si2 0.583180 0.637580 0.938305
Si Si3 0.750000 0.105726 0.000000
Si Si4 0.804409 0.181046 0.649099
Si Si5 0.146662 0.871616 0.684569
O O1 0.500000 0.250000 0.315104
O O2 0.531395 0.374135 0.466360
O O3 0.460179 0.543002 0.359193
O O4 0.385900 0.347927 0.394653
O O5 0.599362 0.789053 0.896210
O O6 0.663327 0.568022 0.969698
O O7 0.729459 0.200772 0.912148
O O8 0.731604 0.079577 0.648749
O O9 0.828837 0.244123 0.749834
O O10 0.117104 0.000000 0.750000
#
# Coordination Sequence:
#
# PCOD9531094 Si02
#       5
#    16  16   8  16  16
#     4  11  23  45  71 109 158 216 278 355 437 527
#     4  10  24  44  73 111 158 217 286 354 441 524
#     4  10  20  42  68 112 146 210 282 344 418 518
#     4  10  23  41  75 109 157 213 274 348 425 519
#     4  10  24  46  73 117 160 215 285 357 428 523
#
# _framework density 29.648434000000002
#
# number of rings (size 3 to 8) (size 9 to 14) (size 15 to 20)
#    0.000    1.778    2.222    0.000    9.333    2.667 
#    0.000    1.111    0.000    0.000    0.000    0.000 
#    0.000    0.000    0.000    1.333    0.000    0.000 
#
# Total GULP energy -200404.954563 kJ/mol
# GULP energy per Si atom -5566.804293 kJ/mol
# Density = 2.958095 g / cm^3
# Si number density = 29.648434 Si / 1000 Ang^3
#
#
#
# Elastic Constant Matrix: (Units=GPa)
#
#
# Indices 1 2 3 4 5 6 
#
# 1 231.4628 86.1456 48.4046 0.0000 0.0000 0.0000
# 2 86.1456 155.8936 24.4694 0.0000 0.0000 0.0000
# 3 48.4046 24.4694 85.2321 0.0000 0.0000 0.0000
# 4 0.0000 0.0000 0.0000 45.4412 0.0000 0.0000
# 5 0.0000 0.0000 0.0000 0.0000 43.5153 0.0000
# 6 0.0000 0.0000 0.0000 0.0000 0.0000 57.9650
#
#
#
# Elastic Compliance Matrix: (Units=1/GPa)
#
#
# Indices 1 2 3 4 5 6 
#
# 1 0.005920 -0.002873 -0.002537 0.000000 0.000000 0.000000
# 2 -0.002873 0.008112 -0.000697 0.000000 0.000000 0.000000
# 3 -0.002537 -0.000697 0.013374 0.000000 0.000000 0.000000
# 4 0.000000 0.000000 0.000000 0.022006 0.000000 0.000000
# 5 0.000000 0.000000 0.000000 0.000000 0.022980 0.000000
# 6 0.000000 0.000000 0.000000 0.000000 0.000000 0.017252
#
#
# Mechanical properties :
#
#
# Convention : Reuss Voigt Hill
#
# Bulk Modulus (GPa) = 65.83034 87.84751 76.83892
# Shear Modulus (GPa) = 46.76240 50.28888 48.52564
#
# Velocity S-wave (km/s) = 3.97574 4.12293 4.05001
# Velocity P-wave (km/s) = 6.58234 7.23594 6.91686
#
# Compressibility (1/GPa) = 0.01519056
#
# Stress axis : x y z
#
# Youngs Moduli (GPa) = 168.90911 123.27738 74.77304
#
# Poissons Ratio (x) = 0.35421 0.18973
# Poissons Ratio (y) = 0.48532 0.05212
# Poissons Ratio (z) = 0.42858 0.08593
#
# Static dielectric constant tensor:
#      x y z
#    x 2.691560 0.000000 0.000000 
#    y 0.000000 2.498390 0.000000 
#    z 0.000000 0.000000 2.268240 
# 
# From -- ./inp_files/22336.got.cif
#   From: 2010.05.17/outbox.cif.g08.bks.cpg/sg73_12_cif.got.tgz:22336.got - 2010.06.03 17:35:07.
