data_PCOD9531576
_publ_section_title
;
Structure prediction by ZEFSAII (Michael W. Deem and Ramdas Pophale) SiO2 
 PCOD9531576
Probable space group: I B C A 
;
_chemical_formula_sum "Si O2"
_cell_formula_units_Z 72
_cell_length_a 10.413162
_cell_length_b 19.150697
_cell_length_c 14.949199
_cell_angle_alpha 90.000000
_cell_angle_beta 90.000000
_cell_angle_gamma 90.000000
_cell_volume 2981.158954
_symmetry_space_group_name_H-M "I B C A "
_symmetry_group_IT_number 73
_symmetry_cell_setting 'orthorhombic'
loop_
_space_group_symop_operation_xyz
x,y,z
-x,1/2-y,z
x,-y,1/2-z
1/2-x,y,-z
-x,-y,-z
x,1/2+y,-z
-x,y,1/2+z
1/2+x,-y,z
1/2+x,1/2+y,1/2+z
1/2-x,-y,1/2+z
1/2+x,1/2-y,-z
-x,1/2+y,1/2-z
1/2-x,1/2-y,1/2-z
1/2+x,y,1/2-z
1/2-x,1/2+y,z
x,1/2-y,1/2+z
loop_
_atom_site_type_symbol
_atom_site_label
_atom_site_fract_x
_atom_site_fract_y
_atom_site_fract_z
Si Si1 0.424252 0.046739 0.171797
Si Si2 0.640085 0.699443 0.365503
Si Si3 0.000000 0.750000 0.787612
Si Si4 0.668758 0.997881 0.081486
Si Si5 0.086104 0.336800 0.563064
O O1 0.392644 0.127227 0.185032
O O2 0.286390 0.012330 0.149930
O O3 0.481269 0.000000 0.250000
O O4 0.541467 0.040788 0.101903
O O5 0.610150 0.756986 0.289855
O O6 0.785535 0.699922 0.398276
O O7 0.567044 0.689114 0.461461
O O8 0.988146 0.686205 0.859065
O O9 0.619894 0.918816 0.060831
O O10 0.750000 0.028851 0.000000
#
# Coordination Sequence:
#
# PCOD9531576 Si02
#       5
#    16  16   8  16  16
#     4  11  22  38  64  96 127 164 207 261 322 384
#     4  10  22  41  60  88 126 159 208 262 319 376
#     4  12  22  36  66  88 114 162 224 258 304 390
#     4  11  21  40  65  88 131 167 204 256 322 389
#     4  10  21  41  61  84 125 169 198 263 330 363
#
# _framework density 24.151681
#
# number of rings (size 3 to 8) (size 9 to 14) (size 15 to 20)
#    0.000    1.333    4.444    4.000    0.000    1.778 
#    0.000    2.222    4.889    0.000    0.000    0.000 
#    0.000    0.000    0.000    0.000    0.000    0.000 
#
# Total GULP energy -200412.558669 kJ/mol
# GULP energy per Si atom -5567.015519 kJ/mol
# Density = 2.409671 g / cm^3
# Si number density = 24.151681 Si / 1000 Ang^3
#
#
#
# Elastic Constant Matrix: (Units=GPa)
#
#
# Indices 1 2 3 4 5 6 
#
# 1 88.0033 19.2759 16.1828 0.0000 0.0000 0.0000
# 2 19.2759 19.8516 5.8514 0.0000 0.0000 0.0000
# 3 16.1828 5.8514 163.2320 0.0000 0.0000 0.0000
# 4 0.0000 0.0000 0.0000 28.3074 0.0000 0.0000
# 5 0.0000 0.0000 0.0000 0.0000 3.9724 0.0000
# 6 0.0000 0.0000 0.0000 0.0000 0.0000 55.8066
#
#
#
# Elastic Compliance Matrix: (Units=1/GPa)
#
#
# Indices 1 2 3 4 5 6 
#
# 1 0.014576 -0.013874 -0.000948 0.000000 0.000000 0.000000
# 2 -0.013874 0.064118 -0.000923 0.000000 0.000000 0.000000
# 3 -0.000948 -0.000923 0.006253 0.000000 0.000000 0.000000
# 4 0.000000 0.000000 0.000000 0.035326 0.000000 0.000000
# 5 0.000000 0.000000 0.000000 0.000000 0.251737 0.000000
# 6 0.000000 0.000000 0.000000 0.000000 0.000000 0.017919
#
#
# Mechanical properties :
#
#
# Convention : Reuss Voigt Hill
#
# Bulk Modulus (GPa) = 18.70648 39.30077 29.00363
# Shear Modulus (GPa) = 11.38332 32.93574 22.15953
#
# Velocity S-wave (km/s) = 2.17336 3.69684 3.03234
# Velocity P-wave (km/s) = 3.74970 5.87622 4.92901
#
# Compressibility (1/GPa) = 0.05345741
#
# Stress axis : x y z
#
# Youngs Moduli (GPa) = 68.60361 15.59630 159.91576
#
# Poissons Ratio (x) = 0.21639 0.15156
# Poissons Ratio (y) = 0.95183 0.14759
# Poissons Ratio (z) = 0.06502 0.01439
#
# Static dielectric constant tensor:
#      x y z
#    x 2.093600 0.000000 0.000000 
#    y 0.000000 1.934650 0.000000 
#    z 0.000000 0.000000 2.360260 
# 
# From -- ./inp_files/10602.got.cif
#   From: 2010.05.17/outbox.cif.g08.bks.cpg/sg73_6_cif.got.tgz:10602.got - 2010.06.03 17:35:07.
