data_PCOD9531075
_publ_section_title
;
Structure prediction by ZEFSAII (Michael W. Deem and Ramdas Pophale) SiO2 
 PCOD9531075
Probable space group: I B C A 
;
_chemical_formula_sum "Si O2"
_cell_formula_units_Z 88
_cell_length_a 18.824579
_cell_length_b 12.997584
_cell_length_c 17.105713
_cell_angle_alpha 90.000000
_cell_angle_beta 90.000000
_cell_angle_gamma 90.000000
_cell_volume 4185.324023
_symmetry_space_group_name_H-M "I B C A "
_symmetry_group_IT_number 73
_symmetry_cell_setting 'orthorhombic'
loop_
_space_group_symop_operation_xyz
x,y,z
-x,1/2-y,z
x,-y,1/2-z
1/2-x,y,-z
-x,-y,-z
x,1/2+y,-z
-x,y,1/2+z
1/2+x,-y,z
1/2+x,1/2+y,1/2+z
1/2-x,-y,1/2+z
1/2+x,1/2-y,-z
-x,1/2+y,1/2-z
1/2-x,1/2-y,1/2-z
1/2+x,y,1/2-z
1/2-x,1/2+y,z
x,1/2-y,1/2+z
loop_
_atom_site_type_symbol
_atom_site_label
_atom_site_fract_x
_atom_site_fract_y
_atom_site_fract_z
Si Si1 0.360641 0.440862 0.123404
Si Si2 0.530281 0.500000 0.750000
Si Si3 0.203082 0.516347 0.158034
Si Si4 0.060814 0.439566 0.111236
Si Si5 0.559884 0.896110 0.011039
Si Si6 0.681416 0.778152 0.944523
O O1 0.415919 0.436641 0.195054
O O2 0.285275 0.491438 0.145125
O O3 0.398206 0.515240 0.059970
O O4 0.338977 0.328905 0.094281
O O5 0.478130 0.434939 0.805565
O O6 0.188428 0.500000 0.250000
O O7 0.145836 0.438901 0.117107
O O8 0.190714 0.629152 0.119255
O O9 0.013511 0.371111 0.053661
O O10 0.045594 0.552640 0.073227
O O11 0.615518 0.807501 0.999300
O O12 0.750000 0.772291 0.000000
#
# Coordination Sequence:
#
# PCOD9531075 Si02
#       6
#    16   8  16  16  16  16
#     4  11  23  40  70  92 132 169 222 276 325 390
#     4  10  20  42  64  92 122 180 204 264 340 394
#     4  11  22  42  66  98 131 177 212 278 342 393
#     4   9  19  37  69  86 132 169 211 262 339 389
#     4   9  20  42  64  95 124 176 214 274 327 384
#     4  11  24  39  68  99 128 169 231 274 322 396
#
# _framework density 21.025852
#
# number of rings (size 3 to 8) (size 9 to 14) (size 15 to 20)
#    0.000    1.818    3.636    0.000    5.091    0.727 
#    0.000   22.727    4.000    0.000    0.000    0.000 
#    0.000    0.000    0.000    0.000    0.000    0.000 
#
# Total GULP energy -245332.121478 kJ/mol
# GULP energy per Si atom -5575.730034 kJ/mol
# Density = 2.097800 g / cm^3
# Si number density = 21.025852 Si / 1000 Ang^3
#
#
#
# Elastic Constant Matrix: (Units=GPa)
#
#
# Indices 1 2 3 4 5 6 
#
# 1 132.8489 20.9493 30.9802 0.0000 0.0000 0.0000
# 2 20.9493 83.5869 28.9793 0.0000 0.0000 0.0000
# 3 30.9802 28.9793 87.9760 0.0000 0.0000 0.0000
# 4 0.0000 0.0000 0.0000 19.8453 0.0000 0.0000
# 5 0.0000 0.0000 0.0000 0.0000 61.1123 0.0000
# 6 0.0000 0.0000 0.0000 0.0000 0.0000 16.1205
#
#
#
# Elastic Compliance Matrix: (Units=1/GPa)
#
#
# Indices 1 2 3 4 5 6 
#
# 1 0.008307 -0.001205 -0.002528 0.000000 0.000000 0.000000
# 2 -0.001205 0.013681 -0.004082 0.000000 0.000000 0.000000
# 3 -0.002528 -0.004082 0.013602 0.000000 0.000000 0.000000
# 4 0.000000 0.000000 0.000000 0.050390 0.000000 0.000000
# 5 0.000000 0.000000 0.000000 0.000000 0.016363 0.000000
# 6 0.000000 0.000000 0.000000 0.000000 0.000000 0.062033
#
#
# Mechanical properties :
#
#
# Convention : Reuss Voigt Hill
#
# Bulk Modulus (GPa) = 50.10454 51.80328 50.95391
# Shear Modulus (GPa) = 26.78672 34.31581 30.55127
#
# Velocity S-wave (km/s) = 3.57317 4.04428 3.81600
# Velocity P-wave (km/s) = 6.39571 6.81907 6.61078
#
# Compressibility (1/GPa) = 0.01995827
#
# Stress axis : x y z
#
# Youngs Moduli (GPa) = 120.38027 73.09441 73.52053
#
# Poissons Ratio (x) = 0.08811 0.18587
# Poissons Ratio (y) = 0.14511 0.30011
# Poissons Ratio (z) = 0.30434 0.29837
#
# Static dielectric constant tensor:
#      x y z
#    x 1.779760 0.000000 0.000000 
#    y 0.000000 1.751600 0.000000 
#    z 0.000000 0.000000 1.831890 
# 
# From -- ./inp_files/23078.got.cif
#   From: 2010.05.17/outbox.cif.g08.bks.cpg/sg73_12_cif.got.tgz:23078.got - 2010.06.03 17:35:07.
