data_PCOD9531601
_publ_section_title
;
Structure prediction by ZEFSAII (Michael W. Deem and Ramdas Pophale) SiO2 
 PCOD9531601
Probable space group: I B C A 
;
_chemical_formula_sum "Si O2"
_cell_formula_units_Z 80
_cell_length_a 14.028079
_cell_length_b 23.541507
_cell_length_c 11.194125
_cell_angle_alpha 90.000000
_cell_angle_beta 90.000000
_cell_angle_gamma 90.000000
_cell_volume 3696.771571
_symmetry_space_group_name_H-M "I B C A "
_symmetry_group_IT_number 73
_symmetry_cell_setting 'orthorhombic'
loop_
_space_group_symop_operation_xyz
x,y,z
-x,1/2-y,z
x,-y,1/2-z
1/2-x,y,-z
-x,-y,-z
x,1/2+y,-z
-x,y,1/2+z
1/2+x,-y,z
1/2+x,1/2+y,1/2+z
1/2-x,-y,1/2+z
1/2+x,1/2-y,-z
-x,1/2+y,1/2-z
1/2-x,1/2-y,1/2-z
1/2+x,y,1/2-z
1/2-x,1/2+y,z
x,1/2-y,1/2+z
loop_
_atom_site_type_symbol
_atom_site_label
_atom_site_fract_x
_atom_site_fract_y
_atom_site_fract_z
Si Si1 0.273582 0.462518 0.867151
Si Si2 0.357592 0.202722 0.538485
Si Si3 0.205321 0.302530 0.332049
Si Si4 0.633169 0.123297 0.257243
Si Si5 0.430048 0.868615 0.156653
O O1 0.299321 0.500000 0.750000
O O2 0.183538 0.426737 0.816656
O O3 0.360248 0.418556 0.886449
O O4 0.250000 0.487510 0.000000
O O5 0.250000 0.182760 0.500000
O O6 0.343286 0.269056 0.560073
O O7 0.386645 0.172207 0.659855
O O8 0.429981 0.181570 0.440211
O O9 0.250000 0.250000 0.250000
O O10 0.290104 0.347860 0.345833
O O11 0.123869 0.338174 0.265914
O O12 0.534019 0.108276 0.316531
#
# Coordination Sequence:
#
# PCOD9531601 Si02
#       5
#    16  16  16  16  16
#     4  11  23  49  77  97 135 180 227 294 365 419
#     4  11  18  41  63  81 133 186 217 269 337 393
#     4   9  19  36  58  92 129 171 225 261 317 401
#     4  10  21  41  65  97 130 174 230 276 341 410
#     4  11  21  42  65  95 136 179 222 287 344 401
#
# _framework density 21.640502999999999
#
# number of rings (size 3 to 8) (size 9 to 14) (size 15 to 20)
#    0.000    1.600    8.000    0.000    0.000    4.000 
#   10.800    4.000    0.000    0.000    0.000    0.000 
#    0.000    0.000    0.000    0.000    0.000    0.000 
#
# Total GULP energy -223023.056557 kJ/mol
# GULP energy per Si atom -5575.576414 kJ/mol
# Density = 2.159125 g / cm^3
# Si number density = 21.640503 Si / 1000 Ang^3
#
#
#
# Elastic Constant Matrix: (Units=GPa)
#
#
# Indices 1 2 3 4 5 6 
#
# 1 92.3950 1.6611 16.8234 0.0000 0.0000 0.0000
# 2 1.6611 33.3941 23.6283 0.0000 0.0000 0.0000
# 3 16.8234 23.6283 83.1963 0.0001 0.0000 0.0000
# 4 0.0000 0.0000 0.0001 41.2084 0.0000 0.0000
# 5 0.0000 0.0000 0.0000 0.0000 15.4169 0.0000
# 6 0.0000 0.0000 0.0000 0.0000 0.0000 1.2636
#
#
#
# Elastic Compliance Matrix: (Units=1/GPa)
#
#
# Indices 1 2 3 4 5 6 
#
# 1 0.011283 0.001318 -0.002656 0.000000 0.000000 0.000000
# 2 0.001318 0.037630 -0.010954 0.000000 0.000000 0.000000
# 3 -0.002656 -0.010954 0.015668 0.000000 0.000000 0.000000
# 4 0.000000 0.000000 0.000000 0.024267 0.000000 0.000000
# 5 0.000000 0.000000 0.000000 0.000000 0.064864 0.000000
# 6 0.000000 0.000000 0.000000 0.000000 0.000000 0.791402
#
#
# Mechanical properties :
#
#
# Convention : Reuss Voigt Hill
#
# Bulk Modulus (GPa) = 25.00149 32.57901 28.79025
# Shear Modulus (GPa) = 5.08632 22.70262 13.89447
#
# Velocity S-wave (km/s) = 1.53475 3.24246 2.53664
# Velocity P-wave (km/s) = 3.83651 5.39494 4.68104
#
# Compressibility (1/GPa) = 0.03999762
#
# Stress axis : x y z
#
# Youngs Moduli (GPa) = 88.62901 26.57439 63.82541
#
# Poissons Ratio (x) = -0.03502 0.16951
# Poissons Ratio (y) = -0.11681 0.69913
# Poissons Ratio (z) = 0.23539 0.29109
#
# Static dielectric constant tensor:
#      x y z
#    x 1.824550 0.000000 0.000000 
#    y 0.000000 1.805890 0.000000 
#    z 0.000000 0.000000 1.912190 
# 
# From -- ./inp_files/10828.got.cif
#   From: 2010.05.17/outbox.cif.g08.bks.cpg/sg73_6_cif.got.tgz:10828.got - 2010.06.03 17:35:07.
