data_PCOD9531454
_publ_section_title
;
Structure prediction by ZEFSAII (Michael W. Deem and Ramdas Pophale) SiO2 
 PCOD9531454
Probable space group: I B C A 
;
_chemical_formula_sum "Si O2"
_cell_formula_units_Z 112
_cell_length_a 25.697457
_cell_length_b 14.539852
_cell_length_c 13.625093
_cell_angle_alpha 90.000000
_cell_angle_beta 90.000000
_cell_angle_gamma 90.000000
_cell_volume 5090.841892
_symmetry_space_group_name_H-M "I B C A "
_symmetry_group_IT_number 73
_symmetry_cell_setting 'orthorhombic'
loop_
_space_group_symop_operation_xyz
x,y,z
-x,1/2-y,z
x,-y,1/2-z
1/2-x,y,-z
-x,-y,-z
x,1/2+y,-z
-x,y,1/2+z
1/2+x,-y,z
1/2+x,1/2+y,1/2+z
1/2-x,-y,1/2+z
1/2+x,1/2-y,-z
-x,1/2+y,1/2-z
1/2-x,1/2-y,1/2-z
1/2+x,y,1/2-z
1/2-x,1/2+y,z
x,1/2-y,1/2+z
loop_
_atom_site_type_symbol
_atom_site_label
_atom_site_fract_x
_atom_site_fract_y
_atom_site_fract_z
Si Si1 0.000000 0.750000 0.744495
Si Si2 0.849214 0.374269 0.235539
Si Si3 0.826530 0.677279 0.759927
Si Si4 0.754897 0.400178 0.887473
Si Si5 0.546742 0.580104 0.626642
Si Si6 0.261602 0.611298 0.387161
Si Si7 0.611305 0.500000 0.250000
Si Si8 0.532414 0.911584 0.893353
O O1 0.978861 0.832202 0.816246
O O2 0.969913 0.684342 0.665755
O O3 0.861683 0.266348 0.237055
O O4 0.799165 0.382745 0.166219
O O5 0.896751 0.424839 0.180681
O O6 0.820521 0.392850 0.341901
O O7 0.803057 0.656369 0.653641
O O8 0.774578 0.680347 0.826006
O O9 0.857531 0.587365 0.787526
O O10 0.761615 0.509233 0.871238
O O11 0.750000 0.381187 0.000000
O O12 0.517345 0.479900 0.629283
O O13 0.543638 0.600613 0.509273
O O14 0.250000 0.632590 0.500000
O O15 0.578094 0.467464 0.157963
#
# Coordination Sequence:
#
# PCOD9531454 Si02
#       8
#     8  16  16  16  16  16   8  16
#     4  12  22  50  74 104 144 186 244 314 368 446
#     4  11  24  39  67 102 140 182 234 299 357 438
#     4  11  22  39  64  96 134 180 236 287 349 438
#     4  10  21  39  64  93 138 184 226 288 349 439
#     4  11  26  48  70 114 145 189 253 303 383 452
#     4  10  21  41  63  97 142 187 231 291 361 432
#     4  12  22  46  68  92 132 192 232 282 378 434
#     4  11  26  46  78 101 149 194 237 316 376 450
#
# _framework density 22.000291000000001
#
# number of rings (size 3 to 8) (size 9 to 14) (size 15 to 20)
#    0.000    1.143    2.857    4.286    2.000    4.571 
#    2.571    0.000    0.000    0.000    0.000    0.000 
#    0.000    0.000    0.000    0.000    0.000    0.000 
#
# Total GULP energy -312031.467402 kJ/mol
# GULP energy per Si atom -5571.990489 kJ/mol
# Density = 2.195022 g / cm^3
# Si number density = 22.000291 Si / 1000 Ang^3
#
#
#
# Elastic Constant Matrix: (Units=GPa)
#
#
# Indices 1 2 3 4 5 6 
#
# 1 97.6254 37.2002 50.4563 0.0000 0.0000 0.0000
# 2 37.2002 120.0690 46.8710 0.0000 0.0000 0.0000
# 3 50.4563 46.8710 168.4953 0.0000 0.0000 0.0000
# 4 0.0000 0.0000 0.0000 38.0244 0.0000 0.0000
# 5 0.0000 0.0000 0.0000 0.0000 22.7384 0.0000
# 6 0.0000 0.0000 0.0000 0.0000 0.0000 -116.9651
#
#
#
# Elastic Compliance Matrix: (Units=1/GPa)
#
#
# Indices 1 2 3 4 5 6 
#
# 1 0.012903 -0.002793 -0.003087 0.000000 0.000000 0.000000
# 2 -0.002793 0.009948 -0.001931 0.000000 0.000000 0.000000
# 3 -0.003087 -0.001931 0.007396 0.000000 0.000000 0.000000
# 4 0.000000 0.000000 0.000000 0.026299 0.000000 0.000000
# 5 0.000000 0.000000 0.000000 0.000000 0.043978 0.000000
# 6 0.000000 0.000000 0.000000 0.000000 0.000000 -0.008550
#
#
# Mechanical properties :
#
#
# Convention : Reuss Voigt Hill
#
# Bulk Modulus (GPa) = 68.37189 72.80497 70.58843
# Shear Modulus (GPa) = 44.45606 5.53703 24.99654
#
# Velocity S-wave (km/s) = 4.50010 1.58816 3.37440
# Velocity P-wave (km/s) = 7.62538 6.04381 6.88019
#
# Compressibility (1/GPa) = 0.01462589
#
# Stress axis : x y z
#
# Youngs Moduli (GPa) = 77.50258 100.52776 135.20080
#
# Poissons Ratio (x) = 0.28073 0.41736
# Poissons Ratio (y) = 0.21643 0.26106
# Poissons Ratio (z) = 0.23925 0.19411
#
# Static dielectric constant tensor:
#      x y z
#    x 1.889520 0.000000 0.000000 
#    y 0.000000 1.893000 0.000000 
#    z 0.000000 0.000000 1.717460 
# 
# From -- ./inp_files/19434.got.cif
#   From: 2010.05.17/outbox.cif.g08.bks.cpg/sg73_10_cif.got.tgz:19434.got - 2010.06.03 17:35:07.
