data_PCOD9531543
_publ_section_title
;
Structure prediction by ZEFSAII (Michael W. Deem and Ramdas Pophale) SiO2 
 PCOD9531543
Probable space group: I B C A 
;
_chemical_formula_sum "Si O2"
_cell_formula_units_Z 72
_cell_length_a 13.025118
_cell_length_b 23.288576
_cell_length_c 11.118719
_cell_angle_alpha 90.000000
_cell_angle_beta 90.000000
_cell_angle_gamma 90.000000
_cell_volume 3372.712755
_symmetry_space_group_name_H-M "I B C A "
_symmetry_group_IT_number 73
_symmetry_cell_setting 'orthorhombic'
loop_
_space_group_symop_operation_xyz
x,y,z
-x,1/2-y,z
x,-y,1/2-z
1/2-x,y,-z
-x,-y,-z
x,1/2+y,-z
-x,y,1/2+z
1/2+x,-y,z
1/2+x,1/2+y,1/2+z
1/2-x,-y,1/2+z
1/2+x,1/2-y,-z
-x,1/2+y,1/2-z
1/2-x,1/2-y,1/2-z
1/2+x,y,1/2-z
1/2-x,1/2+y,z
x,1/2-y,1/2+z
loop_
_atom_site_type_symbol
_atom_site_label
_atom_site_fract_x
_atom_site_fract_y
_atom_site_fract_z
Si Si1 0.000000 0.250000 0.227029
Si Si2 0.210618 0.781115 0.870706
Si Si3 0.555499 0.048634 0.348509
Si Si4 0.628414 0.545780 0.010949
Si Si5 0.884473 0.359200 0.321862
O O1 0.911004 0.222830 0.143498
O O2 0.951365 0.301295 0.307416
O O3 0.250000 0.750000 0.750000
O O4 0.268767 0.841446 0.856334
O O5 0.250000 0.758000 0.000000
O O6 0.433246 0.055552 0.366049
O O7 0.606430 0.106907 0.303520
O O8 0.577526 0.000000 0.250000
O O9 0.599488 0.018711 0.467580
O O10 0.582463 0.595392 0.923206
O O11 0.750000 0.549117 0.000000
#
# Coordination Sequence:
#
# PCOD9531543 Si02
#       5
#     8  16  16  16  16
#     4  10  24  44  66  94 142 180 228 286 338 418
#     4  10  23  44  65  97 131 181 232 278 342 406
#     4   9  21  41  60  97 129 167 225 282 357 416
#     4  10  21  40  66  92 131 173 222 289 353 419
#     4  10  22  40  63  97 131 175 230 279 344 415
#
# _framework density 21.347801
#
# number of rings (size 3 to 8) (size 9 to 14) (size 15 to 20)
#    0.000    2.222    0.000    0.667    6.222    6.222 
#   16.000    1.111    0.000    0.000    0.000    0.000 
#    0.000    0.000    0.000    0.000    0.000    0.000 
#
# Total GULP energy -200458.300715 kJ/mol
# GULP energy per Si atom -5568.286131 kJ/mol
# Density = 2.129921 g / cm^3
# Si number density = 21.347801 Si / 1000 Ang^3
#
#
#
# Elastic Constant Matrix: (Units=GPa)
#
#
# Indices 1 2 3 4 5 6 
#
# 1 129.1015 33.6622 22.7093 0.0000 0.0000 0.0000
# 2 33.6622 114.9256 16.1698 0.0000 0.0000 0.0000
# 3 22.7093 16.1698 63.4693 0.0000 0.0000 0.0000
# 4 0.0000 0.0000 0.0000 23.4675 0.0000 0.0000
# 5 0.0000 0.0000 0.0000 0.0000 22.0536 0.0000
# 6 0.0000 0.0000 0.0000 0.0000 0.0000 38.0009
#
#
#
# Elastic Compliance Matrix: (Units=1/GPa)
#
#
# Indices 1 2 3 4 5 6 
#
# 1 0.008775 -0.002208 -0.002577 0.000000 0.000000 0.000000
# 2 -0.002208 0.009580 -0.001651 0.000000 0.000000 0.000000
# 3 -0.002577 -0.001651 0.017098 0.000000 0.000000 0.000000
# 4 0.000000 0.000000 0.000000 0.042612 0.000000 0.000000
# 5 0.000000 0.000000 0.000000 0.000000 0.045344 0.000000
# 6 0.000000 0.000000 0.000000 0.000000 0.000000 0.026315
#
#
# Mechanical properties :
#
#
# Convention : Reuss Voigt Hill
#
# Bulk Modulus (GPa) = 44.28289 50.28656 47.28473
# Shear Modulus (GPa) = 29.39047 32.36807 30.87927
#
# Velocity S-wave (km/s) = 3.71448 3.89810 3.80739
# Velocity P-wave (km/s) = 6.25979 6.62323 6.44408
#
# Compressibility (1/GPa) = 0.02258209
#
# Stress axis : x y z
#
# Youngs Moduli (GPa) = 113.96286 104.38244 58.48516
#
# Poissons Ratio (x) = 0.23043 0.15073
# Poissons Ratio (y) = 0.25158 0.09655
# Poissons Ratio (z) = 0.29371 0.17232
#
# Static dielectric constant tensor:
#      x y z
#    x 1.699160 0.000000 0.000000 
#    y 0.000000 1.816600 0.000000 
#    z 0.000000 0.000000 1.871630 
# 
# From -- ./inp_files/9675.got.cif
#   From: 2010.05.17/outbox.cif.g08.bks.cpg/sg73_5_cif.got.tgz:9675.got - 2010.06.03 17:35:07.
