data_PCOD9531954
_publ_section_title
;
Structure prediction by ZEFSAII (Michael W. Deem and Ramdas Pophale) SiO2 
 PCOD9531954
Probable space group: I B C A 
;
_chemical_formula_sum "Si O2"
_cell_formula_units_Z 96
_cell_length_a 8.687174
_cell_length_b 27.648469
_cell_length_c 17.344528
_cell_angle_alpha 90.000000
_cell_angle_beta 90.000000
_cell_angle_gamma 90.000000
_cell_volume 4165.931205
_symmetry_space_group_name_H-M "I B C A "
_symmetry_group_IT_number 73
_symmetry_cell_setting 'orthorhombic'
loop_
_space_group_symop_operation_xyz
x,y,z
-x,1/2-y,z
x,-y,1/2-z
1/2-x,y,-z
-x,-y,-z
x,1/2+y,-z
-x,y,1/2+z
1/2+x,-y,z
1/2+x,1/2+y,1/2+z
1/2-x,-y,1/2+z
1/2+x,1/2-y,-z
-x,1/2+y,1/2-z
1/2-x,1/2-y,1/2-z
1/2+x,y,1/2-z
1/2-x,1/2+y,z
x,1/2-y,1/2+z
loop_
_atom_site_type_symbol
_atom_site_label
_atom_site_fract_x
_atom_site_fract_y
_atom_site_fract_z
Si Si1 0.162399 0.776151 0.598317
Si Si2 0.221095 0.978292 0.836466
Si Si3 0.608237 0.388004 0.719775
Si Si4 0.750000 0.635657 0.500000
Si Si5 0.500000 0.750000 0.121280
Si Si6 0.097944 0.067095 0.113784
Si Si7 0.362602 0.319750 0.759819
O O1 0.165448 0.828651 0.559280
O O2 0.334413 0.754981 0.578812
O O3 0.168297 0.782527 0.691201
O O4 0.000000 0.750000 0.580989
O O5 0.347608 0.935764 0.826663
O O6 0.071120 0.954556 0.873175
O O7 0.188265 0.000000 0.750000
O O8 0.286403 0.021972 0.886238
O O9 0.630644 0.402876 0.808640
O O10 0.438937 0.366652 0.719952
O O11 0.713983 0.342061 0.699148
O O12 0.627377 0.602003 0.542903
O O13 0.525994 0.703882 0.177100
#
# Coordination Sequence:
#
# PCOD9531954 Si02
#       7
#    16  16  16   8   8  16  16
#     4  12  27  47  71 100 141 188 235 287 349 420
#     4  10  22  39  68 102 132 171 222 287 359 405
#     4  11  21  36  67 103 133 167 215 287 354 407
#     4  12  28  48  66  92 140 192 240 276 330 418
#     4  12  24  44  74 108 136 172 230 308 372 410
#     4  11  23  42  65  94 136 181 225 280 338 412
#     4  12  20  39  67 105 136 169 219 288 361 413
#
# _framework density 23.044066999999998
#
# number of rings (size 3 to 8) (size 9 to 14) (size 15 to 20)
#    0.000    0.667    5.833    3.000    3.500    0.667 
#    0.000    0.000    3.667    0.000    0.000    0.000 
#    0.000    0.000    0.000    0.000    0.000    0.000 
#
# Total GULP energy -268366.659798 kJ/mol
# GULP energy per Si atom -5590.972079 kJ/mol
# Density = 2.299162 g / cm^3
# Si number density = 23.044067 Si / 1000 Ang^3
#
#
#
# Elastic Constant Matrix: (Units=GPa)
#
#
# Indices 1 2 3 4 5 6 
#
# 1 142.7433 48.2548 26.5477 0.0000 0.0000 0.0000
# 2 48.2548 108.2651 38.3137 0.0000 0.0000 0.0000
# 3 26.5477 38.3137 54.5766 -0.0002 0.0000 0.0000
# 4 0.0000 0.0000 -0.0002 37.3944 0.0000 0.0000
# 5 0.0000 0.0000 0.0000 0.0000 15.4408 0.0000
# 6 0.0000 0.0000 0.0000 0.0000 0.0000 48.3213
#
#
#
# Elastic Compliance Matrix: (Units=1/GPa)
#
#
# Indices 1 2 3 4 5 6 
#
# 1 0.008400 -0.003058 -0.001940 0.000000 0.000000 0.000000
# 2 -0.003058 0.013403 -0.007922 0.000000 0.000000 0.000000
# 3 -0.001940 -0.007922 0.024827 0.000000 0.000000 0.000000
# 4 0.000000 0.000000 0.000000 0.026742 0.000000 0.000000
# 5 0.000000 0.000000 0.000000 0.000000 0.064763 0.000000
# 6 0.000000 0.000000 0.000000 0.000000 0.000000 0.020695
#
#
# Mechanical properties :
#
#
# Convention : Reuss Voigt Hill
#
# Bulk Modulus (GPa) = 48.09396 59.09085 53.59240
# Shear Modulus (GPa) = 26.09621 33.06255 29.57938
#
# Velocity S-wave (km/s) = 3.36884 3.79192 3.58662
# Velocity P-wave (km/s) = 6.00398 6.69849 6.36072
#
# Compressibility (1/GPa) = 0.02079263
#
# Stress axis : x y z
#
# Youngs Moduli (GPa) = 119.04888 74.61155 40.27795
#
# Poissons Ratio (x) = 0.22813 0.07812
# Poissons Ratio (y) = 0.36400 0.31907
# Poissons Ratio (z) = 0.23090 0.59105
#
# Static dielectric constant tensor:
#      x y z
#    x 1.908730 0.000000 0.000000 
#    y 0.000000 1.879510 0.000000 
#    z 0.000000 0.000000 1.891630 
# 
# From -- ./inp_files/7860.got.cif
#   From: 2010.05.17/outbox.cif.g08.bks.cpg/sg73_4_cif.got.tgz:7860.got - 2010.06.03 17:35:07.
