data_PCOD9531845
_publ_section_title
;
Structure prediction by ZEFSAII (Michael W. Deem and Ramdas Pophale) SiO2 
 PCOD9531845
Probable space group: I B C A 
;
_chemical_formula_sum "Si O2"
_cell_formula_units_Z 88
_cell_length_a 10.969816
_cell_length_b 17.185422
_cell_length_c 20.457726
_cell_angle_alpha 90.000000
_cell_angle_beta 90.000000
_cell_angle_gamma 90.000000
_cell_volume 3856.709270
_symmetry_space_group_name_H-M "I B C A "
_symmetry_group_IT_number 73
_symmetry_cell_setting 'orthorhombic'
loop_
_space_group_symop_operation_xyz
x,y,z
-x,1/2-y,z
x,-y,1/2-z
1/2-x,y,-z
-x,-y,-z
x,1/2+y,-z
-x,y,1/2+z
1/2+x,-y,z
1/2+x,1/2+y,1/2+z
1/2-x,-y,1/2+z
1/2+x,1/2-y,-z
-x,1/2+y,1/2-z
1/2-x,1/2-y,1/2-z
1/2+x,y,1/2-z
1/2-x,1/2+y,z
x,1/2-y,1/2+z
loop_
_atom_site_type_symbol
_atom_site_label
_atom_site_fract_x
_atom_site_fract_y
_atom_site_fract_z
Si Si1 0.957273 0.623383 0.468325
Si Si2 0.487838 0.079007 0.209755
Si Si3 0.750000 0.240024 0.500000
Si Si4 0.876303 0.959598 0.574309
Si Si5 0.678361 0.354918 0.389556
Si Si6 0.237872 0.404361 0.748685
O O1 0.869858 0.687592 0.497474
O O2 0.883236 0.548844 0.444549
O O3 0.054022 0.592291 0.521119
O O4 0.037831 0.651947 0.407470
O O5 0.552274 0.057771 0.141652
O O6 0.595659 0.121997 0.251367
O O7 0.350834 0.112333 0.199555
O O8 0.464858 0.000000 0.250000
O O9 0.745946 0.290616 0.433604
O O10 0.736812 0.935039 0.583053
O O11 0.708360 0.363520 0.313928
O O12 0.224647 0.500000 0.750000
#
# Coordination Sequence:
#
# PCOD9531845 Si02
#       6
#    16  16   8  16  16  16
#     4  11  23  39  61  96 129 172 225 279 343 406
#     4   9  17  34  55  95 121 158 207 279 342 386
#     4  12  26  40  60  94 136 186 218 262 356 424
#     4  10  22  37  66  94 127 163 227 291 335 395
#     4  11  22  42  64  92 137 173 223 282 345 415
#     4   9  18  34  62  93 124 165 215 280 341 396
#
# _framework density 22.817378999999999
#
# number of rings (size 3 to 8) (size 9 to 14) (size 15 to 20)
#    0.000    1.818    1.818    2.727    5.091    0.000 
#    3.273    0.000    0.000    1.091   14.182    0.000 
#    0.000    0.000    0.000    0.000    0.000    0.000 
#
# Total GULP energy -245357.761831 kJ/mol
# GULP energy per Si atom -5576.312769 kJ/mol
# Density = 2.276545 g / cm^3
# Si number density = 22.817379 Si / 1000 Ang^3
#
#
#
# Elastic Constant Matrix: (Units=GPa)
#
#
# Indices 1 2 3 4 5 6 
#
# 1 74.1752 0.8105 -16.9064 0.0000 0.0000 0.0000
# 2 0.8105 46.8021 11.9606 0.0000 0.0000 0.0000
# 3 -16.9064 11.9606 67.4657 0.0000 0.0000 0.0000
# 4 0.0000 0.0000 0.0000 -17.1736 0.0000 0.0000
# 5 0.0000 0.0000 0.0000 0.0000 23.3564 0.0000
# 6 0.0000 0.0000 0.0000 0.0000 0.0000 11.5711
#
#
#
# Elastic Compliance Matrix: (Units=1/GPa)
#
#
# Indices 1 2 3 4 5 6 
#
# 1 0.014365 -0.001224 0.003817 0.000000 0.000000 0.000000
# 2 -0.001224 0.022485 -0.004293 0.000000 0.000000 0.000000
# 3 0.003817 -0.004293 0.016540 0.000000 0.000000 0.000000
# 4 0.000000 0.000000 0.000000 -0.058229 0.000000 0.000000
# 5 0.000000 0.000000 0.000000 0.000000 0.042815 0.000000
# 6 0.000000 0.000000 0.000000 0.000000 0.000000 0.086422
#
#
# Mechanical properties :
#
#
# Convention : Reuss Voigt Hill
#
# Bulk Modulus (GPa) = 20.00444 20.01915 20.01179
# Shear Modulus (GPa) = 34.61138 16.38935 25.50036
#
# Velocity S-wave (km/s) = 3.89895 2.68299 3.34666
# Velocity P-wave (km/s) = 5.39030 4.28843 4.87062
#
# Compressibility (1/GPa) = 0.04998891
#
# Stress axis : x y z
#
# Youngs Moduli (GPa) = 69.61412 44.47435 60.45994
#
# Poissons Ratio (x) = 0.05444 -0.23076
# Poissons Ratio (y) = 0.08522 0.25955
# Poissons Ratio (z) = -0.26570 0.19093
#
# Static dielectric constant tensor:
#      x y z
#    x 1.926560 0.000000 0.000000 
#    y 0.000000 1.937450 0.000000 
#    z 0.000000 0.000000 1.889650 
# 
# From -- ./inp_files/25372.got.cif
#   From: 2010.05.17/outbox.cif.g08.bks.cpg/sg73_13_cif.got.tgz:25372.got - 2010.06.03 17:35:07.
