data_PCOD9531984
_publ_section_title
;
Structure prediction by ZEFSAII (Michael W. Deem and Ramdas Pophale) SiO2 
 PCOD9531984
Probable space group: I B C A 
;
_chemical_formula_sum "Si O2"
_cell_formula_units_Z 88
_cell_length_a 24.351715
_cell_length_b 9.139622
_cell_length_c 17.868144
_cell_angle_alpha 90.000000
_cell_angle_beta 90.000000
_cell_angle_gamma 90.000000
_cell_volume 3976.831870
_symmetry_space_group_name_H-M "I B C A "
_symmetry_group_IT_number 73
_symmetry_cell_setting 'orthorhombic'
loop_
_space_group_symop_operation_xyz
x,y,z
-x,1/2-y,z
x,-y,1/2-z
1/2-x,y,-z
-x,-y,-z
x,1/2+y,-z
-x,y,1/2+z
1/2+x,-y,z
1/2+x,1/2+y,1/2+z
1/2-x,-y,1/2+z
1/2+x,1/2-y,-z
-x,1/2+y,1/2-z
1/2-x,1/2-y,1/2-z
1/2+x,y,1/2-z
1/2-x,1/2+y,z
x,1/2-y,1/2+z
loop_
_atom_site_type_symbol
_atom_site_label
_atom_site_fract_x
_atom_site_fract_y
_atom_site_fract_z
Si Si1 0.250000 0.785349 0.500000
Si Si2 0.704179 0.851239 0.292954
Si Si3 0.792930 0.450997 0.594179
Si Si4 0.459944 0.639752 0.989802
Si Si5 0.117210 0.623125 0.145963
Si Si6 0.000000 0.250000 0.635285
Si Si7 0.527776 0.000000 0.750000
O O1 0.203970 0.679470 0.464719
O O2 0.219788 0.894105 0.556393
O O3 0.750000 0.750000 0.250000
O O4 0.738353 0.910547 0.362403
O O5 0.653652 0.755768 0.322667
O O6 0.687741 0.000000 0.250000
O O7 0.843978 0.478734 0.647832
O O8 0.500000 0.750000 0.945939
O O9 0.406651 0.623643 0.938883
O O10 0.500000 0.500000 0.000000
O O11 0.452586 0.714309 0.072251
O O12 0.066197 0.603188 0.199952
O O13 0.999272 0.391352 0.689005
#
# Coordination Sequence:
#
# PCOD9531984 Si02
#       7
#     8  16  16  16  16   8   8
#     4  10  22  40  62  94 142 190 242 306 360 430
#     4  12  23  45  70 107 164 205 256 315 382 472
#     4  11  22  41  66 100 145 196 240 309 363 461
#     4  10  23  50  73 107 146 196 256 333 392 462
#     4  12  24  43  80 109 152 207 259 313 406 468
#     4  10  26  50  78 104 154 192 250 350 388 464
#     4  12  26  48  76 114 142 194 264 320 410 468
#
# _framework density 22.128167000000001
#
# number of rings (size 3 to 8) (size 9 to 14) (size 15 to 20)
#    0.545    0.364    5.455    1.091    1.273    2.909 
#    4.909    0.000    0.000    0.000    0.000    0.000 
#    0.000    0.000    0.000    0.000    0.000    0.000 
#
# Total GULP energy -245156.697036 kJ/mol
# GULP energy per Si atom -5571.743114 kJ/mol
# Density = 2.207780 g / cm^3
# Si number density = 22.128167 Si / 1000 Ang^3
#
#
#
# Elastic Constant Matrix: (Units=GPa)
#
#
# Indices 1 2 3 4 5 6 
#
# 1 66.1692 37.6896 33.2123 0.0000 0.0000 0.0000
# 2 37.6896 142.3683 50.2702 0.0000 0.0000 0.0000
# 3 33.2123 50.2702 123.4806 0.0000 0.0000 0.0000
# 4 0.0000 0.0000 0.0000 51.1594 0.0000 0.0000
# 5 0.0000 0.0000 0.0000 0.0000 32.9300 0.0000
# 6 0.0000 0.0000 0.0000 0.0000 0.0000 35.4563
#
#
#
# Elastic Compliance Matrix: (Units=1/GPa)
#
#
# Indices 1 2 3 4 5 6 
#
# 1 0.019068 -0.003780 -0.003590 0.000000 0.000000 0.000000
# 2 -0.003780 0.008953 -0.002628 0.000000 0.000000 0.000000
# 3 -0.003590 -0.002628 0.010134 0.000000 0.000000 0.000000
# 4 0.000000 0.000000 0.000000 0.019547 0.000000 0.000000
# 5 0.000000 0.000000 0.000000 0.000000 0.030367 0.000000
# 6 0.000000 0.000000 0.000000 0.000000 0.000000 0.028204
#
#
# Mechanical properties :
#
#
# Convention : Reuss Voigt Hill
#
# Bulk Modulus (GPa) = 55.07070 63.81802 59.44436
# Shear Modulus (GPa) = 35.13186 37.96553 36.54869
#
# Velocity S-wave (km/s) = 3.98886 4.14661 4.06850
# Velocity P-wave (km/s) = 6.79381 7.19921 6.99944
#
# Compressibility (1/GPa) = 0.01815848
#
# Stress axis : x y z
#
# Youngs Moduli (GPa) = 52.44446 111.69736 98.67974
#
# Poissons Ratio (x) = 0.42226 0.35422
# Poissons Ratio (y) = 0.19826 0.25933
# Poissons Ratio (z) = 0.18825 0.29354
#
# Static dielectric constant tensor:
#      x y z
#    x 1.894690 0.000000 0.000000 
#    y 0.000000 2.010980 0.000000 
#    z 0.000000 0.000000 1.857330 
# 
# From -- ./inp_files/24141.got.cif
#   From: 2010.05.17/outbox.cif.g08.bks.cpg/sg73_13_cif.got.tgz:24141.got - 2010.06.03 17:35:07.
