data_PCOD9531042
_publ_section_title
;
Structure prediction by ZEFSAII (Michael W. Deem and Ramdas Pophale) SiO2 
 PCOD9531042
Probable space group: I B C A 
;
_chemical_formula_sum "Si O2"
_cell_formula_units_Z 104
_cell_length_a 18.064331
_cell_length_b 10.600539
_cell_length_c 25.519544
_cell_angle_alpha 90.000000
_cell_angle_beta 90.000000
_cell_angle_gamma 90.000000
_cell_volume 4886.779467
_symmetry_space_group_name_H-M "I B C A "
_symmetry_group_IT_number 73
_symmetry_cell_setting 'orthorhombic'
loop_
_space_group_symop_operation_xyz
x,y,z
-x,1/2-y,z
x,-y,1/2-z
1/2-x,y,-z
-x,-y,-z
x,1/2+y,-z
-x,y,1/2+z
1/2+x,-y,z
1/2+x,1/2+y,1/2+z
1/2-x,-y,1/2+z
1/2+x,1/2-y,-z
-x,1/2+y,1/2-z
1/2-x,1/2-y,1/2-z
1/2+x,y,1/2-z
1/2-x,1/2+y,z
x,1/2-y,1/2+z
loop_
_atom_site_type_symbol
_atom_site_label
_atom_site_fract_x
_atom_site_fract_y
_atom_site_fract_z
Si Si1 0.885892 0.292997 0.424987
Si Si2 0.576501 0.823203 0.536411
Si Si3 0.777520 0.274112 0.087889
Si Si4 0.233195 0.513392 0.350605
Si Si5 0.928635 0.536979 0.622846
Si Si6 0.165090 0.500000 0.750000
Si Si7 0.945873 0.869588 0.682728
O O1 0.914226 0.364577 0.476011
O O2 0.801869 0.254432 0.437871
O O3 0.931349 0.165794 0.411148
O O4 0.893670 0.360300 0.368873
O O5 0.500000 0.750000 0.539536
O O6 0.649248 0.744159 0.553564
O O7 0.572953 0.931566 0.579164
O O8 0.776572 0.160173 0.131852
O O9 0.770706 0.418148 0.107445
O O10 0.149157 0.462048 0.346652
O O11 0.280604 0.488445 0.299012
O O12 0.995308 0.525085 0.663981
O O13 0.107024 0.607761 0.731811
O O14 0.000000 0.750000 0.690018
#
# Coordination Sequence:
#
# PCOD9531042 Si02
#       7
#    16  16  16  16  16   8  16
#     4  10  20  41  65  88 128 174 215 254 319 401
#     4  11  23  35  62 100 129 168 207 260 328 384
#     4  10  22  43  63  93 133 166 216 270 316 385
#     4  10  23  43  66  92 125 172 220 268 318 388
#     4   9  22  42  61  91 133 164 207 274 319 382
#     4  12  24  42  72  92 120 182 222 268 330 382
#     4  10  22  43  64  92 129 167 216 268 326 385
#
# _framework density 21.28191
#
# number of rings (size 3 to 8) (size 9 to 14) (size 15 to 20)
#    0.000    1.846    1.538    1.846    2.154    4.923 
#    5.538    4.615    0.000    0.000    0.000    0.000 
#    0.000    0.000    0.000    0.000    0.000    0.000 
#
# Total GULP energy -289725.566331 kJ/mol
# GULP energy per Si atom -5571.645506 kJ/mol
# Density = 2.123347 g / cm^3
# Si number density = 21.281910 Si / 1000 Ang^3
#
#
#
# Elastic Constant Matrix: (Units=GPa)
#
#
# Indices 1 2 3 4 5 6 
#
# 1 113.3116 9.8468 47.7332 0.0000 0.0000 0.0000
# 2 9.8468 33.8867 11.2806 0.0000 0.0000 0.0000
# 3 47.7332 11.2806 83.2027 0.0000 0.0000 0.0000
# 4 0.0000 0.0000 0.0000 16.8010 0.0000 0.0000
# 5 0.0000 0.0000 0.0000 0.0000 21.2105 0.0000
# 6 0.0000 0.0000 0.0000 0.0000 0.0000 27.2389
#
#
#
# Elastic Compliance Matrix: (Units=1/GPa)
#
#
# Indices 1 2 3 4 5 6 
#
# 1 0.011686 -0.001219 -0.006539 0.000000 0.000000 0.000000
# 2 -0.001219 0.031032 -0.003508 0.000000 0.000000 0.000000
# 3 -0.006539 -0.003508 0.016246 0.000000 0.000000 0.000000
# 4 0.000000 0.000000 0.000000 0.059520 0.000000 0.000000
# 5 0.000000 0.000000 0.000000 0.000000 0.047146 0.000000
# 6 0.000000 0.000000 0.000000 0.000000 0.000000 0.036712
#
#
# Mechanical properties :
#
#
# Convention : Reuss Voigt Hill
#
# Bulk Modulus (GPa) = 27.44839 40.90246 34.17543
# Shear Modulus (GPa) = 21.09546 23.81944 22.45745
#
# Velocity S-wave (km/s) = 3.15181 3.34913 3.25196
# Velocity P-wave (km/s) = 5.11573 5.84950 5.49488
#
# Compressibility (1/GPa) = 0.03643200
#
# Stress axis : x y z
#
# Youngs Moduli (GPa) = 85.57513 32.22475 61.55460
#
# Poissons Ratio (x) = 0.03928 0.40249
# Poissons Ratio (y) = 0.10431 0.21594
# Poissons Ratio (z) = 0.55956 0.11305
#
# Static dielectric constant tensor:
#      x y z
#    x 1.818450 0.000000 0.000000 
#    y 0.000000 1.809930 0.000000 
#    z 0.000000 0.000000 1.770740 
# 
# From -- ./inp_files/23922.got.cif
#   From: 2010.05.17/outbox.cif.g08.bks.cpg/sg73_12_cif.got.tgz:23922.got - 2010.06.03 17:35:07.
