data_PCOD9531185
_publ_section_title
;
Structure prediction by ZEFSAII (Michael W. Deem and Ramdas Pophale) SiO2 
 PCOD9531185
Probable space group: I B C A 
;
_chemical_formula_sum "Si O2"
_cell_formula_units_Z 104
_cell_length_a 18.910586
_cell_length_b 8.194864
_cell_length_c 28.553228
_cell_angle_alpha 90.000000
_cell_angle_beta 90.000000
_cell_angle_gamma 90.000000
_cell_volume 4424.884618
_symmetry_space_group_name_H-M "I B C A "
_symmetry_group_IT_number 73
_symmetry_cell_setting 'orthorhombic'
loop_
_space_group_symop_operation_xyz
x,y,z
-x,1/2-y,z
x,-y,1/2-z
1/2-x,y,-z
-x,-y,-z
x,1/2+y,-z
-x,y,1/2+z
1/2+x,-y,z
1/2+x,1/2+y,1/2+z
1/2-x,-y,1/2+z
1/2+x,1/2-y,-z
-x,1/2+y,1/2-z
1/2-x,1/2-y,1/2-z
1/2+x,y,1/2-z
1/2-x,1/2+y,z
x,1/2-y,1/2+z
loop_
_atom_site_type_symbol
_atom_site_label
_atom_site_fract_x
_atom_site_fract_y
_atom_site_fract_z
Si Si1 0.832885 0.800626 0.751863
Si Si2 0.701732 0.524888 0.039503
Si Si3 0.390181 0.354309 0.157889
Si Si4 0.549386 0.601574 0.058700
Si Si5 0.887067 0.225138 0.648656
Si Si6 0.000000 0.750000 0.083115
Si Si7 0.234494 0.761440 0.604568
O O1 0.750000 0.750000 0.750000
O O2 0.884463 0.766273 0.707835
O O3 0.867341 0.723697 0.798559
O O4 0.831931 0.000000 0.750000
O O5 0.622834 0.586365 0.029566
O O6 0.754646 0.662792 0.057269
O O7 0.693857 0.419803 0.087031
O O8 0.750000 0.443952 0.000000
O O9 0.416614 0.541385 0.156409
O O10 0.433973 0.266421 0.117962
O O11 0.308834 0.342039 0.141517
O O12 0.500000 0.750000 0.041694
O O13 0.570667 0.661285 0.112115
O O14 0.511357 0.424984 0.057921
O O15 0.811518 0.200607 0.623590
#
# Coordination Sequence:
#
# PCOD9531185 Si02
#       7
#    16  16  16  16  16   8  16
#     4  10  21  34  58  94 138 178 235 300 345 395
#     4  11  24  41  69 105 133 169 227 294 354 414
#     4  11  21  38  61  95 138 184 236 282 342 419
#     4  11  24  44  74  99 142 190 232 285 357 434
#     4  10  21  39  62  96 137 183 234 293 350 404
#     4  12  24  42  68 100 136 192 238 270 346 436
#     4  11  20  37  68  95 130 174 222 288 348 410
#
# _framework density 23.503437000000002
#
# number of rings (size 3 to 8) (size 9 to 14) (size 15 to 20)
#    0.000    1.231    6.154    0.462    0.000    1.231 
#    1.385    0.000    1.692    5.538    0.000    0.000 
#    0.000    0.000    0.000    0.000    0.000    0.000 
#
# Total GULP energy -289902.426909 kJ/mol
# GULP energy per Si atom -5575.046671 kJ/mol
# Density = 2.344994 g / cm^3
# Si number density = 23.503437 Si / 1000 Ang^3
#
#
#
# Elastic Constant Matrix: (Units=GPa)
#
#
# Indices 1 2 3 4 5 6 
#
# 1 80.2239 15.9297 13.7537 0.0000 0.0000 0.0000
# 2 15.9297 95.8197 24.9561 0.0000 0.0000 0.0000
# 3 13.7537 24.9561 89.9790 0.0000 0.0000 0.0000
# 4 0.0000 0.0000 0.0000 52.2139 0.0000 0.0000
# 5 0.0000 0.0000 0.0000 0.0000 21.2217 0.0000
# 6 0.0000 0.0000 0.0000 0.0000 0.0000 30.7993
#
#
#
# Elastic Compliance Matrix: (Units=1/GPa)
#
#
# Indices 1 2 3 4 5 6 
#
# 1 0.013077 -0.001782 -0.001505 0.000000 0.000000 0.000000
# 2 -0.001782 0.011492 -0.002915 0.000000 0.000000 0.000000
# 3 -0.001505 -0.002915 0.012152 0.000000 0.000000 0.000000
# 4 0.000000 0.000000 0.000000 0.019152 0.000000 0.000000
# 5 0.000000 0.000000 0.000000 0.000000 0.047122 0.000000
# 6 0.000000 0.000000 0.000000 0.000000 0.000000 0.032468
#
#
# Mechanical properties :
#
#
# Convention : Reuss Voigt Hill
#
# Bulk Modulus (GPa) = 41.12247 41.70019 41.41133
# Shear Modulus (GPa) = 32.05709 34.93917 33.49813
#
# Velocity S-wave (km/s) = 3.69715 3.85977 3.77934
# Velocity P-wave (km/s) = 5.97993 6.13551 6.05822
#
# Compressibility (1/GPa) = 0.02431760
#
# Stress axis : x y z
#
# Youngs Moduli (GPa) = 76.47054 87.01917 82.29005
#
# Poissons Ratio (x) = 0.15508 0.12381
# Poissons Ratio (y) = 0.13628 0.23987
# Poissons Ratio (z) = 0.11506 0.25365
#
# Static dielectric constant tensor:
#      x y z
#    x 1.883930 0.000000 0.000000 
#    y 0.000000 1.997030 0.000000 
#    z 0.000000 0.000000 1.997750 
# 
# From -- ./inp_files/34665.got.cif
#   From: 2010.05.17/outbox.cif.g08.bks.cpg/sg73_18_cif.got.tgz:34665.got - 2010.06.03 17:35:07.
