data_PCOD9531588
_publ_section_title
;
Structure prediction by ZEFSAII (Michael W. Deem and Ramdas Pophale) SiO2 
 PCOD9531588
Probable space group: I B C A 
;
_chemical_formula_sum "Si O2"
_cell_formula_units_Z 104
_cell_length_a 18.696080
_cell_length_b 15.786399
_cell_length_c 17.598470
_cell_angle_alpha 90.000000
_cell_angle_beta 90.000000
_cell_angle_gamma 90.000000
_cell_volume 5194.078934
_symmetry_space_group_name_H-M "I B C A "
_symmetry_group_IT_number 73
_symmetry_cell_setting 'orthorhombic'
loop_
_space_group_symop_operation_xyz
x,y,z
-x,1/2-y,z
x,-y,1/2-z
1/2-x,y,-z
-x,-y,-z
x,1/2+y,-z
-x,y,1/2+z
1/2+x,-y,z
1/2+x,1/2+y,1/2+z
1/2-x,-y,1/2+z
1/2+x,1/2-y,-z
-x,1/2+y,1/2-z
1/2-x,1/2-y,1/2-z
1/2+x,y,1/2-z
1/2-x,1/2+y,z
x,1/2-y,1/2+z
loop_
_atom_site_type_symbol
_atom_site_label
_atom_site_fract_x
_atom_site_fract_y
_atom_site_fract_z
Si Si1 0.747134 0.909655 0.221211
Si Si2 0.809846 0.526094 0.435855
Si Si3 0.516722 0.576064 0.392035
Si Si4 0.000000 0.750000 0.323048
Si Si5 0.468206 0.897829 0.558717
Si Si6 0.633838 0.872079 0.347216
Si Si7 0.382675 0.808818 0.299958
O O1 0.722866 0.923893 0.135478
O O2 0.677653 0.889180 0.270773
O O3 0.806823 0.839033 0.230943
O O4 0.776352 0.000000 0.250000
O O5 0.750000 0.528021 0.500000
O O6 0.886986 0.568076 0.452253
O O7 0.827369 0.429394 0.410473
O O8 0.506880 0.623397 0.473168
O O9 0.516166 0.476923 0.412071
O O10 0.446446 0.593247 0.342238
O O11 0.583071 0.614099 0.347280
O O12 0.026176 0.824596 0.379207
O O13 0.063446 0.718874 0.267128
O O14 0.628265 0.771564 0.355220
#
# Coordination Sequence:
#
# PCOD9531588 Si02
#       7
#    16  16  16   8  16  16  16
#     4  10  23  40  64  93 134 176 221 269 331 408
#     4  10  21  43  67  93 133 179 225 271 344 403
#     4  10  22  43  68  90 131 174 226 266 344 394
#     4  12  26  38  66 102 138 164 230 280 346 392
#     4  10  24  42  66  98 132 176 218 288 330 407
#     4  10  21  41  64  92 130 175 214 275 329 396
#     4  12  23  41  65 100 131 174 224 278 327 407
#
# _framework density 20.0228
#
# number of rings (size 3 to 8) (size 9 to 14) (size 15 to 20)
#    0.000    1.538    1.538    2.308    4.308    1.231 
#    5.538    2.308    0.000    0.000    0.000    0.000 
#    0.000    0.000    0.000    0.000    0.000    0.000 
#
# Total GULP energy -290432.858281 kJ/mol
# GULP energy per Si atom -5585.247275 kJ/mol
# Density = 1.997723 g / cm^3
# Si number density = 20.022800 Si / 1000 Ang^3
#
#
#
# Elastic Constant Matrix: (Units=GPa)
#
#
# Indices 1 2 3 4 5 6 
#
# 1 100.3428 37.5305 61.9341 0.0000 0.0000 0.0000
# 2 37.5305 63.0614 36.5465 0.0000 0.0000 0.0000
# 3 61.9341 36.5465 90.7300 0.0000 0.0000 0.0000
# 4 0.0000 0.0000 0.0000 24.5795 0.0000 0.0000
# 5 0.0000 0.0000 0.0000 0.0000 25.8277 0.0000
# 6 0.0000 0.0000 0.0000 0.0000 0.0000 19.5790
#
#
#
# Elastic Compliance Matrix: (Units=1/GPa)
#
#
# Indices 1 2 3 4 5 6 
#
# 1 0.018252 -0.004751 -0.010545 0.000000 0.000000 0.000000
# 2 -0.004751 0.021923 -0.005588 0.000000 0.000000 0.000000
# 3 -0.010545 -0.005588 0.020471 0.000000 0.000000 0.000000
# 4 0.000000 0.000000 0.000000 0.040684 0.000000 0.000000
# 5 0.000000 0.000000 0.000000 0.000000 0.038718 0.000000
# 6 0.000000 0.000000 0.000000 0.000000 0.000000 0.051075
#
#
# Mechanical properties :
#
#
# Convention : Reuss Voigt Hill
#
# Bulk Modulus (GPa) = 52.97166 58.46182 55.71674
# Shear Modulus (GPa) = 20.90443 21.87211 21.38827
#
# Velocity S-wave (km/s) = 3.23465 3.30867 3.27187
# Velocity P-wave (km/s) = 6.36111 6.62249 6.49312
#
# Compressibility (1/GPa) = 0.01887802
#
# Stress axis : x y z
#
# Youngs Moduli (GPa) = 54.78999 45.61339 48.85005
#
# Poissons Ratio (x) = 0.21671 0.51513
# Poissons Ratio (y) = 0.26030 0.27296
# Poissons Ratio (z) = 0.57777 0.25488
#
# Static dielectric constant tensor:
#      x y z
#    x 1.693230 0.000000 0.000000 
#    y 0.000000 1.739180 0.000000 
#    z 0.000000 0.000000 1.702300 
# 
# From -- ./inp_files/23216.got.cif
#   From: 2010.05.17/outbox.cif.g08.bks.cpg/sg73_12_cif.got.tgz:23216.got - 2010.06.03 17:35:07.
