data_PCOD9531696
_publ_section_title
;
Structure prediction by ZEFSAII (Michael W. Deem and Ramdas Pophale) SiO2 
 PCOD9531696
Probable space group: I B C A 
;
_chemical_formula_sum "Si O2"
_cell_formula_units_Z 112
_cell_length_a 23.151357
_cell_length_b 17.652617
_cell_length_c 13.981113
_cell_angle_alpha 90.000000
_cell_angle_beta 90.000000
_cell_angle_gamma 90.000000
_cell_volume 5713.829756
_symmetry_space_group_name_H-M "I B C A "
_symmetry_group_IT_number 73
_symmetry_cell_setting 'orthorhombic'
loop_
_space_group_symop_operation_xyz
x,y,z
-x,1/2-y,z
x,-y,1/2-z
1/2-x,y,-z
-x,-y,-z
x,1/2+y,-z
-x,y,1/2+z
1/2+x,-y,z
1/2+x,1/2+y,1/2+z
1/2-x,-y,1/2+z
1/2+x,1/2-y,-z
-x,1/2+y,1/2-z
1/2-x,1/2-y,1/2-z
1/2+x,y,1/2-z
1/2-x,1/2+y,z
x,1/2-y,1/2+z
loop_
_atom_site_type_symbol
_atom_site_label
_atom_site_fract_x
_atom_site_fract_y
_atom_site_fract_z
Si Si1 0.934232 0.000000 0.250000
Si Si2 0.000000 0.750000 0.679259
Si Si3 0.654687 0.448214 0.111535
Si Si4 0.216536 0.448793 0.656343
Si Si5 0.686951 0.581624 0.992457
Si Si6 0.878597 0.646848 0.426437
Si Si7 0.507034 0.131292 0.848792
Si Si8 0.411618 0.301660 0.015893
O O1 0.891656 0.056425 0.305330
O O2 0.972358 0.047048 0.176063
O O3 0.013905 0.818193 0.752880
O O4 0.052247 0.727188 0.607656
O O5 0.718429 0.420267 0.139086
O O6 0.664746 0.537825 0.087360
O O7 0.629879 0.404021 0.021017
O O8 0.213792 0.500000 0.750000
O O9 0.200196 0.510235 0.575491
O O10 0.171501 0.380471 0.645517
O O11 0.750000 0.620320 0.000000
O O12 0.636237 0.635821 0.958097
O O13 0.879006 0.732764 0.463021
O O14 0.940450 0.632574 0.379101
O O15 0.543837 0.164917 0.937061
#
# Coordination Sequence:
#
# PCOD9531696 Si02
#       8
#     8   8  16  16  16  16  16  16
#     4  12  24  38  68  96 128 166 224 268 308 400
#     4  12  24  44  64  88 134 178 208 270 338 382
#     4  10  21  43  64  90 128 170 210 261 325 375
#     4  10  22  40  66  96 127 165 213 268 319 381
#     4   9  21  39  63  90 126 167 207 261 321 375
#     4  11  23  41  63  93 128 169 213 264 322 386
#     4  12  26  42  63  98 129 169 221 268 322 394
#     4  12  23  44  65  90 133 174 213 266 332 388
#
# _framework density 19.601565000000001
#
# number of rings (size 3 to 8) (size 9 to 14) (size 15 to 20)
#    0.000    1.143    5.000    2.143    3.000    2.857 
#    0.000    0.000    0.000    4.286    0.000    0.000 
#    0.000    0.000    0.000    0.000    0.000    0.000 
#
# Total GULP energy -312504.455587 kJ/mol
# GULP energy per Si atom -5580.436707 kJ/mol
# Density = 1.955695 g / cm^3
# Si number density = 19.601565 Si / 1000 Ang^3
#
#
#
# Elastic Constant Matrix: (Units=GPa)
#
#
# Indices 1 2 3 4 5 6 
#
# 1 35.0234 20.3209 -19.2713 0.0000 0.0000 0.0000
# 2 20.3209 40.0794 -5.7313 0.0000 0.0000 0.0000
# 3 -19.2713 -5.7313 53.8557 0.0000 0.0000 0.0000
# 4 0.0000 0.0000 0.0000 22.4594 0.0000 0.0000
# 5 0.0000 0.0000 0.0000 0.0000 26.9811 0.0000
# 6 0.0000 0.0000 0.0000 0.0000 0.0000 24.5717
#
#
#
# Elastic Compliance Matrix: (Units=1/GPa)
#
#
# Indices 1 2 3 4 5 6 
#
# 1 0.050838 -0.023532 0.015687 0.000000 0.000000 0.000000
# 2 -0.023532 0.036229 -0.004565 0.000000 0.000000 0.000000
# 3 0.015687 -0.004565 0.023696 0.000000 0.000000 0.000000
# 4 0.000000 0.000000 0.000000 0.044525 0.000000 0.000000
# 5 0.000000 0.000000 0.000000 0.000000 0.037063 0.000000
# 6 0.000000 0.000000 0.000000 0.000000 0.000000 0.040697
#
#
# Mechanical properties :
#
#
# Convention : Reuss Voigt Hill
#
# Bulk Modulus (GPa) = 11.63582 13.28835 12.46208
# Shear Modulus (GPa) = 17.45108 23.71179 20.58143
#
# Velocity S-wave (km/s) = 2.98701 3.48183 3.24387
# Velocity P-wave (km/s) = 4.22438 4.79147 4.51683
#
# Compressibility (1/GPa) = 0.08594152
#
# Stress axis : x y z
#
# Youngs Moduli (GPa) = 19.67042 27.60226 42.20183
#
# Poissons Ratio (x) = 0.64955 -0.66202
# Poissons Ratio (y) = 0.46289 0.19266
# Poissons Ratio (z) = -0.30857 0.12601
#
# Static dielectric constant tensor:
#      x y z
#    x 1.698460 0.000000 0.000000 
#    y 0.000000 1.694530 0.000000 
#    z 0.000000 0.000000 1.855910 
# 
# From -- ./inp_files/19452.got.cif
#   From: 2010.05.17/outbox.cif.g08.bks.cpg/sg73_10_cif.got.tgz:19452.got - 2010.06.03 17:35:07.
