data_PCOD9531413
_publ_section_title
;
Structure prediction by ZEFSAII (Michael W. Deem and Ramdas Pophale) SiO2 
 PCOD9531413
Probable space group: I B C A 
;
_chemical_formula_sum "Si O2"
_cell_formula_units_Z 96
_cell_length_a 13.758305
_cell_length_b 21.859034
_cell_length_c 14.868494
_cell_angle_alpha 90.000000
_cell_angle_beta 90.000000
_cell_angle_gamma 90.000000
_cell_volume 4471.599309
_symmetry_space_group_name_H-M "I B C A "
_symmetry_group_IT_number 73
_symmetry_cell_setting 'orthorhombic'
loop_
_space_group_symop_operation_xyz
x,y,z
-x,1/2-y,z
x,-y,1/2-z
1/2-x,y,-z
-x,-y,-z
x,1/2+y,-z
-x,y,1/2+z
1/2+x,-y,z
1/2+x,1/2+y,1/2+z
1/2-x,-y,1/2+z
1/2+x,1/2-y,-z
-x,1/2+y,1/2-z
1/2-x,1/2-y,1/2-z
1/2+x,y,1/2-z
1/2-x,1/2+y,z
x,1/2-y,1/2+z
loop_
_atom_site_type_symbol
_atom_site_label
_atom_site_fract_x
_atom_site_fract_y
_atom_site_fract_z
Si Si1 0.250000 0.279747 0.000000
Si Si2 0.264082 0.675570 0.860985
Si Si3 0.422930 0.493503 0.920503
Si Si4 0.557946 0.356772 0.456139
Si Si5 0.967807 0.112712 0.346668
Si Si6 0.437870 0.807721 0.707855
Si Si7 0.750000 0.927154 0.000000
O O1 0.287127 0.233624 0.076965
O O2 0.157752 0.319644 0.030268
O O3 0.364306 0.645748 0.827770
O O4 0.177654 0.698774 0.797782
O O5 0.218125 0.620221 0.921940
O O6 0.414400 0.421343 0.908537
O O7 0.457041 0.539611 0.843280
O O8 0.328729 0.528049 0.958132
O O9 0.500000 0.500000 0.000000
O O10 0.505866 0.368904 0.552828
O O11 0.484497 0.321960 0.389761
O O12 0.042160 0.136699 0.274125
O O13 0.500000 0.750000 0.742557
#
# Coordination Sequence:
#
# PCOD9531413 Si02
#       7
#     8  16  16  16  16  16   8
#     4  11  21  36  64  94 129 171 204 266 322 383
#     4  10  21  39  61  89 130 168 211 259 326 384
#     4   9  18  38  62  90 122 161 211 257 314 379
#     4  11  23  40  64  95 129 167 214 265 322 380
#     4  10  25  41  66  90 125 173 210 267 323 384
#     4  12  25  40  62  96 128 168 218 263 319 392
#     4   9  17  36  66  92 119 169 208 258 318 389
#
# _framework density 21.468828999999999
#
# number of rings (size 3 to 8) (size 9 to 14) (size 15 to 20)
#    0.000    1.667    1.667    4.500    2.333    2.667 
#    0.000    0.000    0.000    6.000    0.000    0.000 
#    0.000    0.000    0.000    0.000    0.000    0.000 
#
# Total GULP energy -267979.878828 kJ/mol
# GULP energy per Si atom -5582.914142 kJ/mol
# Density = 2.141997 g / cm^3
# Si number density = 21.468829 Si / 1000 Ang^3
#
#
#
# Elastic Constant Matrix: (Units=GPa)
#
#
# Indices 1 2 3 4 5 6 
#
# 1 77.4929 44.4667 8.6215 0.0000 0.0000 0.0000
# 2 44.4667 131.4773 9.1439 0.0000 0.0000 0.0000
# 3 8.6215 9.1439 50.0284 0.0000 0.0000 -0.0001
# 4 0.0000 0.0000 0.0000 12.6522 0.0000 0.0000
# 5 0.0000 0.0000 0.0000 0.0000 9.7221 0.0000
# 6 0.0000 0.0000 -0.0001 0.0000 0.0000 28.3350
#
#
#
# Elastic Compliance Matrix: (Units=1/GPa)
#
#
# Indices 1 2 3 4 5 6 
#
# 1 0.016172 -0.005344 -0.001810 0.000000 0.000000 0.000000
# 2 -0.005344 0.009469 -0.000810 0.000000 0.000000 0.000000
# 3 -0.001810 -0.000810 0.020449 0.000000 0.000000 0.000000
# 4 0.000000 0.000000 0.000000 0.079037 0.000000 0.000000
# 5 0.000000 0.000000 0.000000 0.000000 0.102859 0.000000
# 6 0.000000 0.000000 0.000000 0.000000 0.000000 0.035292
#
#
# Mechanical properties :
#
#
# Convention : Reuss Voigt Hill
#
# Bulk Modulus (GPa) = 33.15369 42.60698 37.88034
# Shear Modulus (GPa) = 17.28547 23.25963 20.27255
#
# Velocity S-wave (km/s) = 2.84058 3.29510 3.07624
# Velocity P-wave (km/s) = 5.12199 5.86225 5.50458
#
# Compressibility (1/GPa) = 0.03016255
#
# Stress axis : x y z
#
# Youngs Moduli (GPa) = 61.83505 105.60265 48.90301
#
# Poissons Ratio (x) = 0.56430 0.08853
# Poissons Ratio (y) = 0.33042 0.03961
# Poissons Ratio (z) = 0.11194 0.08553
#
# Static dielectric constant tensor:
#      x y z
#    x 1.728950 0.000000 0.000000 
#    y 0.000000 1.774430 0.000000 
#    z 0.000000 0.000000 1.793970 
# 
# From -- ./inp_files/17123.got.cif
#   From: 2010.05.17/outbox.cif.g08.bks.cpg/sg73_9_cif.got.tgz:17123.got - 2010.06.03 17:35:07.
