data_PCOD9532711
_publ_section_title
;
Structure prediction by ZEFSAII (Michael W. Deem and Ramdas Pophale) SiO2 
 PCOD9532711
Probable space group: I B C A 
;
_chemical_formula_sum "Si O2"
_cell_formula_units_Z 88
_cell_length_a 14.385224
_cell_length_b 25.116805
_cell_length_c 10.760536
_cell_angle_alpha 90.000000
_cell_angle_beta 90.000000
_cell_angle_gamma 90.000000
_cell_volume 3887.898582
_symmetry_space_group_name_H-M "I B C A "
_symmetry_group_IT_number 73
_symmetry_cell_setting 'orthorhombic'
loop_
_space_group_symop_operation_xyz
x,y,z
-x,1/2-y,z
x,-y,1/2-z
1/2-x,y,-z
-x,-y,-z
x,1/2+y,-z
-x,y,1/2+z
1/2+x,-y,z
1/2+x,1/2+y,1/2+z
1/2-x,-y,1/2+z
1/2+x,1/2-y,-z
-x,1/2+y,1/2-z
1/2-x,1/2-y,1/2-z
1/2+x,y,1/2-z
1/2-x,1/2+y,z
x,1/2-y,1/2+z
loop_
_atom_site_type_symbol
_atom_site_label
_atom_site_fract_x
_atom_site_fract_y
_atom_site_fract_z
Si Si1 0.056534 0.804097 0.417179
Si Si2 0.280468 0.959352 0.866770
Si Si3 0.750000 0.332386 0.000000
Si Si4 0.491462 0.964812 0.874674
Si Si5 0.996944 0.813543 0.170471
Si Si6 0.656206 0.111884 0.714217
O O1 0.158908 0.797832 0.473552
O O2 0.002497 0.834611 0.528585
O O3 0.000000 0.750000 0.397248
O O4 0.067046 0.829066 0.280181
O O5 0.205636 0.085708 0.668916
O O6 0.274736 0.000000 0.750000
O O7 0.387298 0.940601 0.877349
O O8 0.250000 0.983147 0.000000
O O9 0.732795 0.371325 0.115021
O O10 0.579554 0.926586 0.850186
O O11 0.491915 0.000000 0.750000
O O12 0.500000 0.000000 0.000000
O O13 0.901799 0.834055 0.234302
O O14 0.000000 0.750000 0.151815
#
# Coordination Sequence:
#
# PCOD9532711 Si02
#       6
#    16  16   8  16  16  16
#     4   9  19  41  65  91 128 170 222 277 337 405
#     4  11  25  43  68 100 140 182 230 287 344 420
#     4  10  24  38  68  96 128 182 224 276 352 412
#     4  11  25  42  66  96 135 180 219 277 344 404
#     4   9  20  40  67  94 134 176 221 283 335 402
#     4  11  24  41  68 101 137 176 236 279 344 415
#
# _framework density 22.634336000000001
#
# number of rings (size 3 to 8) (size 9 to 14) (size 15 to 20)
#    0.000    1.818    0.000    2.727    8.909    4.364 
#    0.000   22.727    2.000    0.000    0.000    0.000 
#    0.000    0.000    0.000    0.000    0.000    0.000 
#
# Total GULP energy -245076.578835 kJ/mol
# GULP energy per Si atom -5569.922246 kJ/mol
# Density = 2.258282 g / cm^3
# Si number density = 22.634336 Si / 1000 Ang^3
#
#
#
# Elastic Constant Matrix: (Units=GPa)
#
#
# Indices 1 2 3 4 5 6 
#
# 1 118.6506 43.5582 30.1040 0.0000 0.0000 0.0000
# 2 43.5582 65.2059 23.2047 -0.0001 0.0000 0.0000
# 3 30.1040 23.2047 141.3152 -0.0001 -0.0001 0.0001
# 4 0.0000 -0.0001 -0.0001 21.9718 0.0000 0.0001
# 5 0.0000 0.0000 -0.0001 0.0000 40.6887 0.0000
# 6 0.0000 0.0000 0.0001 0.0001 0.0000 38.7731
#
#
#
# Elastic Compliance Matrix: (Units=1/GPa)
#
#
# Indices 1 2 3 4 5 6 
#
# 1 0.011370 -0.007151 -0.001248 0.000000 0.000000 0.000000
# 2 -0.007151 0.020786 -0.001890 0.000000 0.000000 0.000000
# 3 -0.001248 -0.001890 0.007653 0.000000 0.000000 0.000000
# 4 0.000000 0.000000 0.000000 0.045513 0.000000 0.000000
# 5 0.000000 0.000000 0.000000 0.000000 0.024577 0.000000
# 6 0.000000 0.000000 0.000000 0.000000 0.000000 0.025791
#
#
# Mechanical properties :
#
#
# Convention : Reuss Voigt Hill
#
# Bulk Modulus (GPa) = 52.00049 57.65616 54.82832
# Shear Modulus (GPa) = 30.73581 35.50704 33.12143
#
# Velocity S-wave (km/s) = 3.68901 3.96501 3.82950
# Velocity P-wave (km/s) = 6.41631 6.81835 6.62038
#
# Compressibility (1/GPa) = 0.01923059
#
# Stress axis : x y z
#
# Youngs Moduli (GPa) = 87.95056 48.11021 130.67619
#
# Poissons Ratio (x) = 0.34405 0.16307
# Poissons Ratio (y) = 0.62895 0.24694
# Poissons Ratio (z) = 0.10975 0.09091
#
# Static dielectric constant tensor:
#      x y z
#    x 1.861630 0.000000 0.000000 
#    y 0.000000 1.901780 0.000000 
#    z 0.000000 0.000000 1.971100 
# 
# From -- ./inp_files/11104.got.cif
#   From: 2010.05.17/outbox.cif.g08.bks.cpg/sg73_6_cif.got.tgz:11104.got - 2010.06.03 17:35:07.
