data_PCOD9532625
_publ_section_title
;
Structure prediction by ZEFSAII (Michael W. Deem and Ramdas Pophale) SiO2 
 PCOD9532625
Probable space group: I B C A 
;
_chemical_formula_sum "Si O2"
_cell_formula_units_Z 112
_cell_length_a 24.146614
_cell_length_b 17.515168
_cell_length_c 11.313726
_cell_angle_alpha 90.000000
_cell_angle_beta 90.000000
_cell_angle_gamma 90.000000
_cell_volume 4784.936774
_symmetry_space_group_name_H-M "I B C A "
_symmetry_group_IT_number 73
_symmetry_cell_setting 'orthorhombic'
loop_
_space_group_symop_operation_xyz
x,y,z
-x,1/2-y,z
x,-y,1/2-z
1/2-x,y,-z
-x,-y,-z
x,1/2+y,-z
-x,y,1/2+z
1/2+x,-y,z
1/2+x,1/2+y,1/2+z
1/2-x,-y,1/2+z
1/2+x,1/2-y,-z
-x,1/2+y,1/2-z
1/2-x,1/2-y,1/2-z
1/2+x,y,1/2-z
1/2-x,1/2+y,z
x,1/2-y,1/2+z
loop_
_atom_site_type_symbol
_atom_site_label
_atom_site_fract_x
_atom_site_fract_y
_atom_site_fract_z
Si Si1 0.435971 0.230317 0.747902
Si Si2 0.687692 0.423305 0.205488
Si Si3 0.692741 0.817982 0.570889
Si Si4 0.941865 0.203638 0.491026
Si Si5 0.701752 0.643939 0.648359
Si Si6 0.389027 0.553649 0.001719
Si Si7 0.627459 0.607418 0.869895
O O1 0.500000 0.250000 0.758151
O O2 0.414140 0.282230 0.638666
O O3 0.416439 0.232905 0.883849
O O4 0.423410 0.145462 0.700404
O O5 0.716639 0.500000 0.250000
O O6 0.678194 0.371989 0.319440
O O7 0.734917 0.379657 0.133470
O O8 0.634676 0.451354 0.131265
O O9 0.750000 0.836440 0.500000
O O10 0.699926 0.734028 0.625052
O O11 0.646036 0.837261 0.475180
O O12 0.941682 0.111124 0.504779
O O13 0.000000 0.250000 0.482953
O O14 0.659479 0.602448 0.562465
O O15 0.678069 0.615807 0.776135
O O16 0.388490 0.474055 0.073375
#
# Coordination Sequence:
#
# PCOD9532625 Si02
#       7
#    16  16  16  16  16  16  16
#     4  10  23  45  72 105 137 183 242 315 382 452
#     4  12  25  44  66 102 155 202 245 302 366 433
#     4  12  26  44  65 104 148 202 256 305 360 440
#     4  10  23  45  75 105 141 184 246 308 387 456
#     4  12  26  40  70  99 147 200 253 294 359 432
#     4  12  25  43  69 107 145 196 249 306 377 446
#     4  12  25  43  70 104 145 191 248 311 367 449
#
# _framework density 23.406787999999999
#
# number of rings (size 3 to 8) (size 9 to 14) (size 15 to 20)
#    0.000    0.571    4.286    3.857    4.000    0.000 
#    0.000    2.857    0.000    1.714    0.000    0.000 
#    0.000    0.000    0.000    0.000    0.000    0.000 
#
# Total GULP energy -312326.929656 kJ/mol
# GULP energy per Si atom -5577.266601 kJ/mol
# Density = 2.335351 g / cm^3
# Si number density = 23.406788 Si / 1000 Ang^3
#
#
#
# Elastic Constant Matrix: (Units=GPa)
#
#
# Indices 1 2 3 4 5 6 
#
# 1 71.7532 25.4895 22.5078 0.0000 0.0000 0.0000
# 2 25.4895 143.7395 56.0820 0.0000 0.0000 0.0000
# 3 22.5078 56.0820 163.3286 0.0000 0.0000 0.0000
# 4 0.0000 0.0000 0.0000 37.9126 0.0000 0.0000
# 5 0.0000 0.0000 0.0000 0.0000 57.8718 0.0000
# 6 0.0000 0.0000 0.0000 0.0000 0.0000 33.7479
#
#
#
# Elastic Compliance Matrix: (Units=1/GPa)
#
#
# Indices 1 2 3 4 5 6 
#
# 1 0.015125 -0.002158 -0.001343 0.000000 0.000000 0.000000
# 2 -0.002158 0.008341 -0.002567 0.000000 0.000000 0.000000
# 3 -0.001343 -0.002567 0.007189 0.000000 0.000000 0.000000
# 4 0.000000 0.000000 0.000000 0.026376 0.000000 0.000000
# 5 0.000000 0.000000 0.000000 0.000000 0.017280 0.000000
# 6 0.000000 0.000000 0.000000 0.000000 0.000000 0.029631
#
#
# Mechanical properties :
#
#
# Convention : Reuss Voigt Hill
#
# Bulk Modulus (GPa) = 53.99889 65.22000 59.60944
# Shear Modulus (GPa) = 40.89937 44.22258 42.56097
#
# Velocity S-wave (km/s) = 4.18464 4.35133 4.26880
# Velocity P-wave (km/s) = 6.81675 7.29175 7.05825
#
# Compressibility (1/GPa) = 0.01851890
#
# Stress axis : x y z
#
# Youngs Moduli (GPa) = 66.11730 119.88763 139.09998
#
# Poissons Ratio (x) = 0.25871 0.18685
# Poissons Ratio (y) = 0.14268 0.35703
# Poissons Ratio (z) = 0.08882 0.30772
#
# Static dielectric constant tensor:
#      x y z
#    x 1.930650 0.000000 0.000000 
#    y 0.000000 1.920510 0.000000 
#    z 0.000000 0.000000 2.030550 
# 
# From -- ./inp_files/14814.got.cif
#   From: 2010.05.17/outbox.cif.g08.bks.cpg/sg73_8_cif.got.tgz:14814.got - 2010.06.03 17:35:07.
