data_PCOD9532307
_publ_section_title
;
Structure prediction by ZEFSAII (Michael W. Deem and Ramdas Pophale) SiO2 
 PCOD9532307
Probable space group: I B C A 
;
_chemical_formula_sum "Si O2"
_cell_formula_units_Z 72
_cell_length_a 9.999839
_cell_length_b 15.533321
_cell_length_c 22.006387
_cell_angle_alpha 90.000000
_cell_angle_beta 90.000000
_cell_angle_gamma 90.000000
_cell_volume 3418.267698
_symmetry_space_group_name_H-M "I B C A "
_symmetry_group_IT_number 73
_symmetry_cell_setting 'orthorhombic'
loop_
_space_group_symop_operation_xyz
x,y,z
-x,1/2-y,z
x,-y,1/2-z
1/2-x,y,-z
-x,-y,-z
x,1/2+y,-z
-x,y,1/2+z
1/2+x,-y,z
1/2+x,1/2+y,1/2+z
1/2-x,-y,1/2+z
1/2+x,1/2-y,-z
-x,1/2+y,1/2-z
1/2-x,1/2-y,1/2-z
1/2+x,y,1/2-z
1/2-x,1/2+y,z
x,1/2-y,1/2+z
loop_
_atom_site_type_symbol
_atom_site_label
_atom_site_fract_x
_atom_site_fract_y
_atom_site_fract_z
Si Si1 0.722101 0.969722 0.681797
Si Si2 0.595849 0.894623 0.511260
Si Si3 0.500000 0.750000 0.592934
Si Si4 0.492381 0.461842 0.104000
Si Si5 0.635025 0.225274 0.794904
O O1 0.856831 0.967445 0.642469
O O2 0.655648 0.874041 0.685423
O O3 0.750718 0.000000 0.750000
O O4 0.616345 0.033369 0.649643
O O5 0.750000 0.922100 0.500000
O O6 0.586319 0.808225 0.548949
O O7 0.525635 0.886990 0.445741
O O8 0.518465 0.959129 0.557084
O O9 0.609443 0.718680 0.643461
O O10 0.500000 0.250000 0.759538
O O11 0.750000 0.250000 0.750000
#
# Coordination Sequence:
#
# PCOD9532307 Si02
#       5
#    16  16   8  16  16
#     4  12  26  43  73 105 143 184 242 297 362 434
#     4  11  22  45  68  98 144 186 234 299 349 432
#     4  10  22  44  70  96 138 186 242 288 354 424
#     4  11  23  44  70  99 139 183 229 296 360 418
#     4  10  24  45  69  97 146 186 231 297 359 428
#
# _framework density 21.063300999999999
#
# number of rings (size 3 to 8) (size 9 to 14) (size 15 to 20)
#    0.667    0.444    4.444    0.667    9.333    0.000 
#    4.000    2.222    0.000    0.000    0.000    0.000 
#    0.000    0.000    0.000    0.000    0.000    0.000 
#
# Total GULP energy -200407.255090 kJ/mol
# GULP energy per Si atom -5566.868197 kJ/mol
# Density = 2.101536 g / cm^3
# Si number density = 21.063301 Si / 1000 Ang^3
#
#
#
# Elastic Constant Matrix: (Units=GPa)
#
#
# Indices 1 2 3 4 5 6 
#
# 1 145.3645 28.0883 79.3615 0.0000 0.0000 0.0000
# 2 28.0883 18.6423 19.0442 0.0000 0.0000 0.0000
# 3 79.3615 19.0442 180.2633 0.0000 0.0000 0.0000
# 4 0.0000 0.0000 0.0000 27.6731 0.0000 0.0000
# 5 0.0000 0.0000 0.0000 0.0000 46.2222 0.0000
# 6 0.0000 0.0000 0.0000 0.0000 0.0000 16.5935
#
#
#
# Elastic Compliance Matrix: (Units=1/GPa)
#
#
# Indices 1 2 3 4 5 6 
#
# 1 0.011484 -0.013606 -0.003618 0.000000 0.000000 0.000000
# 2 -0.013606 0.076252 -0.002066 0.000000 0.000000 0.000000
# 3 -0.003618 -0.002066 0.007359 0.000000 0.000000 0.000000
# 4 0.000000 0.000000 0.000000 0.036136 0.000000 0.000000
# 5 0.000000 0.000000 0.000000 0.000000 0.021635 0.000000
# 6 0.000000 0.000000 0.000000 0.000000 0.000000 0.060264
#
#
# Mechanical properties :
#
#
# Convention : Reuss Voigt Hill
#
# Bulk Modulus (GPa) = 17.69469 66.36200 42.02835
# Shear Modulus (GPa) = 18.48103 32.61618 25.54860
#
# Velocity S-wave (km/s) = 2.96531 3.93935 3.48651
# Velocity P-wave (km/s) = 4.48810 7.22950 6.01701
#
# Compressibility (1/GPa) = 0.05651414
#
# Stress axis : x y z
#
# Youngs Moduli (GPa) = 87.07973 13.11442 135.89480
#
# Poissons Ratio (x) = 0.17844 0.49171
# Poissons Ratio (y) = 1.18482 0.28071
# Poissons Ratio (z) = 0.31508 0.02709
#
# Static dielectric constant tensor:
#      x y z
#    x 1.778720 0.000000 0.000000 
#    y 0.000000 1.826080 0.000000 
#    z 0.000000 0.000000 1.739010 
# 
# From -- ./inp_files/5310.got.cif
#   From: 2010.05.17/outbox.cif.g08.bks.cpg/sg73_3_cif.got.tgz:5310.got - 2010.06.03 17:35:07.
