data_PCOD9532604
_publ_section_title
;
Structure prediction by ZEFSAII (Michael W. Deem and Ramdas Pophale) SiO2 
 PCOD9532604
Probable space group: I B C A 
;
_chemical_formula_sum "Si O2"
_cell_formula_units_Z 72
_cell_length_a 9.426367
_cell_length_b 15.196215
_cell_length_c 23.651753
_cell_angle_alpha 90.000000
_cell_angle_beta 90.000000
_cell_angle_gamma 90.000000
_cell_volume 3387.997714
_symmetry_space_group_name_H-M "I B C A "
_symmetry_group_IT_number 73
_symmetry_cell_setting 'orthorhombic'
loop_
_space_group_symop_operation_xyz
x,y,z
-x,1/2-y,z
x,-y,1/2-z
1/2-x,y,-z
-x,-y,-z
x,1/2+y,-z
-x,y,1/2+z
1/2+x,-y,z
1/2+x,1/2+y,1/2+z
1/2-x,-y,1/2+z
1/2+x,1/2-y,-z
-x,1/2+y,1/2-z
1/2-x,1/2-y,1/2-z
1/2+x,y,1/2-z
1/2-x,1/2+y,z
x,1/2-y,1/2+z
loop_
_atom_site_type_symbol
_atom_site_label
_atom_site_fract_x
_atom_site_fract_y
_atom_site_fract_z
Si Si1 0.500000 0.750000 0.739625
Si Si2 0.870802 0.030223 0.538686
Si Si3 0.487976 0.341264 0.366957
Si Si4 0.939464 0.574547 0.701148
Si Si5 0.239893 0.549939 0.639478
O O1 0.582262 0.688079 0.693039
O O2 0.574058 0.825031 0.777387
O O3 0.750000 0.072854 0.500000
O O4 0.923241 0.088966 0.590883
O O5 0.797119 0.950898 0.573131
O O6 0.000000 0.000000 0.500000
O O7 0.500000 0.250000 0.399749
O O8 0.642809 0.376124 0.349696
O O9 0.929181 0.500000 0.750000
O O10 0.096725 0.564697 0.674520
O O11 0.821693 0.540113 0.657066
#
# Coordination Sequence:
#
# PCOD9532604 Si02
#       5
#     8  16  16  16  16
#     4  10  24  44  66 106 140 184 220 280 340 410
#     4  12  23  45  75  94 126 183 230 285 354 392
#     4  10  23  45  63 105 138 166 228 292 321 416
#     4  12  23  41  68  98 142 188 220 274 344 404
#     4  12  23  43  70 100 139 182 234 274 335 422
#
# _framework density 21.25149
#
# number of rings (size 3 to 8) (size 9 to 14) (size 15 to 20)
#    0.667    0.000    6.667    0.667    0.000    2.667 
#    4.000    0.000    2.444    0.000    0.000    0.000 
#    0.000    0.000    0.000    0.000    0.000    0.000 
#
# Total GULP energy -200565.117938 kJ/mol
# GULP energy per Si atom -5571.253276 kJ/mol
# Density = 2.120312 g / cm^3
# Si number density = 21.251490 Si / 1000 Ang^3
#
#
#
# Elastic Constant Matrix: (Units=GPa)
#
#
# Indices 1 2 3 4 5 6 
#
# 1 139.5246 38.5783 64.1963 0.0000 0.0000 0.0000
# 2 38.5783 107.7027 37.7999 0.0000 0.0000 0.0000
# 3 64.1963 37.7999 102.6671 0.0000 0.0000 0.0000
# 4 0.0000 0.0000 0.0000 22.5010 0.0000 0.0000
# 5 0.0000 0.0000 0.0000 0.0000 41.8953 0.0000
# 6 0.0000 0.0000 0.0000 0.0000 0.0000 3.1425
#
#
#
# Elastic Compliance Matrix: (Units=1/GPa)
#
#
# Indices 1 2 3 4 5 6 
#
# 1 0.010309 -0.001642 -0.005841 0.000000 0.000000 0.000000
# 2 -0.001642 0.010924 -0.002995 0.000000 0.000000 0.000000
# 3 -0.005841 -0.002995 0.014495 0.000000 0.000000 0.000000
# 4 0.000000 0.000000 0.000000 0.044442 0.000000 0.000000
# 5 0.000000 0.000000 0.000000 0.000000 0.023869 0.000000
# 6 0.000000 0.000000 0.000000 0.000000 0.000000 0.318213
#
#
# Mechanical properties :
#
#
# Convention : Reuss Voigt Hill
#
# Bulk Modulus (GPa) = 67.70052 70.11595 68.90823
# Shear Modulus (GPa) = 11.15736 27.46243 19.30989
#
# Velocity S-wave (km/s) = 2.29381 3.59870 3.01763
# Velocity P-wave (km/s) = 6.24030 7.09455 6.68109
#
# Compressibility (1/GPa) = 0.01477094
#
# Stress axis : x y z
#
# Youngs Moduli (GPa) = 97.00279 91.53889 68.98719
#
# Poissons Ratio (x) = 0.15035 0.40298
# Poissons Ratio (y) = 0.15933 0.20662
# Poissons Ratio (z) = 0.56663 0.27417
#
# Static dielectric constant tensor:
#      x y z
#    x 1.803400 0.000000 0.000000 
#    y 0.000000 1.869810 0.000000 
#    z 0.000000 0.000000 1.798160 
# 
# From -- ./inp_files/31067.got.cif
#   From: 2010.05.17/outbox.cif.g08.bks.cpg/sg73_16_cif.got.tgz:31067.got - 2010.06.03 17:35:07.
