data_PCOD9532736
_publ_section_title
;
Structure prediction by ZEFSAII (Michael W. Deem and Ramdas Pophale) SiO2 
 PCOD9532736
Probable space group: I B C A 
;
_chemical_formula_sum "Si O2"
_cell_formula_units_Z 120
_cell_length_a 27.127235
_cell_length_b 22.793623
_cell_length_c 8.017509
_cell_angle_alpha 90.000000
_cell_angle_beta 90.000000
_cell_angle_gamma 90.000000
_cell_volume 4957.450045
_symmetry_space_group_name_H-M "I B C A "
_symmetry_group_IT_number 73
_symmetry_cell_setting 'orthorhombic'
loop_
_space_group_symop_operation_xyz
x,y,z
-x,1/2-y,z
x,-y,1/2-z
1/2-x,y,-z
-x,-y,-z
x,1/2+y,-z
-x,y,1/2+z
1/2+x,-y,z
1/2+x,1/2+y,1/2+z
1/2-x,-y,1/2+z
1/2+x,1/2-y,-z
-x,1/2+y,1/2-z
1/2-x,1/2-y,1/2-z
1/2+x,y,1/2-z
1/2-x,1/2+y,z
x,1/2-y,1/2+z
loop_
_atom_site_type_symbol
_atom_site_label
_atom_site_fract_x
_atom_site_fract_y
_atom_site_fract_z
Si Si1 0.075824 0.173033 0.089328
Si Si2 0.700071 0.669755 0.288432
Si Si3 0.736743 0.565091 0.806942
Si Si4 0.544657 0.535760 0.088844
Si Si5 0.019491 0.158496 0.744045
Si Si6 0.612009 0.201636 0.924883
Si Si7 0.876979 0.402159 0.332457
Si Si8 0.750000 0.244465 0.000000
O O1 0.111789 0.228298 0.071645
O O2 0.100817 0.113044 0.151647
O O3 0.034777 0.184442 0.232310
O O4 0.044581 0.163805 0.922627
O O5 0.728165 0.608476 0.298992
O O6 0.644673 0.672447 0.222479
O O7 0.707602 0.711170 0.445185
O O8 0.730844 0.703521 0.145082
O O9 0.748164 0.500000 0.750000
O O10 0.677825 0.574450 0.802669
O O11 0.750000 0.574141 0.000000
O O12 0.565712 0.500000 0.250000
O O13 0.519679 0.591967 0.177829
O O14 0.500000 0.500000 0.000000
O O15 0.586408 0.559542 0.954586
O O16 0.055511 0.189547 0.615056
O O17 0.628158 0.162639 0.082018
#
# Coordination Sequence:
#
# PCOD9532736 Si02
#       8
#    16  16  16  16  16  16  16   8
#     4  12  25  43  72 106 153 195 241 305 384 457
#     4  11  24  46  72 109 146 189 253 310 383 452
#     4  12  28  52  75 106 154 196 256 324 382 457
#     4  11  24  45  75 102 148 197 249 314 373 439
#     4  11  25  43  64 108 146 191 247 300 364 464
#     4  11  24  42  71 101 148 193 240 302 378 455
#     4  11  26  48  73 110 146 196 260 310 382 463
#     4  10  24  40  76 104 144 186 238 318 376 442
#
# _framework density 24.205991999999998
#
# number of rings (size 3 to 8) (size 9 to 14) (size 15 to 20)
#    0.000    0.800    2.000    4.400    8.400    4.267 
#    0.000    0.000    0.000    0.000    0.000    0.000 
#    0.000    0.000    0.000    0.000    0.000    0.000 
#
# Total GULP energy -335612.264416 kJ/mol
# GULP energy per Si atom -5593.537740 kJ/mol
# Density = 2.415090 g / cm^3
# Si number density = 24.205992 Si / 1000 Ang^3
#
#
#
# Elastic Constant Matrix: (Units=GPa)
#
#
# Indices 1 2 3 4 5 6 
#
# 1 134.4110 55.3626 15.7803 0.0000 0.0000 0.0000
# 2 55.3626 156.0273 38.1813 0.0000 0.0000 0.0000
# 3 15.7803 38.1813 75.5471 0.0000 0.0000 0.0000
# 4 0.0000 0.0000 0.0000 27.3849 0.0000 0.0000
# 5 0.0000 0.0000 0.0000 0.0000 33.6565 0.0000
# 6 0.0000 0.0000 0.0000 0.0000 0.0000 59.6934
#
#
#
# Elastic Compliance Matrix: (Units=1/GPa)
#
#
# Indices 1 2 3 4 5 6 
#
# 1 0.008719 -0.003022 -0.000294 0.000000 0.000000 0.000000
# 2 -0.003022 0.008361 -0.003594 0.000000 0.000000 0.000000
# 3 -0.000294 -0.003594 0.015115 0.000000 0.000000 0.000000
# 4 0.000000 0.000000 0.000000 0.036516 0.000000 0.000000
# 5 0.000000 0.000000 0.000000 0.000000 0.029712 0.000000
# 6 0.000000 0.000000 0.000000 0.000000 0.000000 0.016752
#
#
# Mechanical properties :
#
#
# Convention : Reuss Voigt Hill
#
# Bulk Modulus (GPa) = 54.42378 64.95931 59.69154
# Shear Modulus (GPa) = 37.00397 41.25771 39.13084
#
# Velocity S-wave (km/s) = 3.91412 4.13297 4.02503
# Velocity P-wave (km/s) = 6.55435 7.04766 6.80548
#
# Compressibility (1/GPa) = 0.01837432
#
# Stress axis : x y z
#
# Youngs Moduli (GPa) = 114.69158 119.60394 66.16033
#
# Poissons Ratio (x) = 0.36142 0.01945
# Poissons Ratio (y) = 0.34657 0.23781
# Poissons Ratio (z) = 0.03372 0.42990
#
# Static dielectric constant tensor:
#      x y z
#    x 1.975940 0.000000 0.000000 
#    y 0.000000 1.963350 0.000000 
#    z 0.000000 0.000000 2.008170 
# 
# From -- ./inp_files/8042.got.cif
#   From: 2010.05.17/outbox.cif.g08.bks.cpg/sg73_5_cif.got.tgz:8042.got - 2010.06.03 17:35:07.
