data_PCOD9532537
_publ_section_title
;
Structure prediction by ZEFSAII (Michael W. Deem and Ramdas Pophale) SiO2 
 PCOD9532537
Probable space group: I B C A 
;
_chemical_formula_sum "Si O2"
_cell_formula_units_Z 72
_cell_length_a 20.874319
_cell_length_b 11.144683
_cell_length_c 13.992274
_cell_angle_alpha 90.000000
_cell_angle_beta 90.000000
_cell_angle_gamma 90.000000
_cell_volume 3255.129995
_symmetry_space_group_name_H-M "I B C A "
_symmetry_group_IT_number 73
_symmetry_cell_setting 'orthorhombic'
loop_
_space_group_symop_operation_xyz
x,y,z
-x,1/2-y,z
x,-y,1/2-z
1/2-x,y,-z
-x,-y,-z
x,1/2+y,-z
-x,y,1/2+z
1/2+x,-y,z
1/2+x,1/2+y,1/2+z
1/2-x,-y,1/2+z
1/2+x,1/2-y,-z
-x,1/2+y,1/2-z
1/2-x,1/2-y,1/2-z
1/2+x,y,1/2-z
1/2-x,1/2+y,z
x,1/2-y,1/2+z
loop_
_atom_site_type_symbol
_atom_site_label
_atom_site_fract_x
_atom_site_fract_y
_atom_site_fract_z
Si Si1 0.938561 0.183415 0.734778
Si Si2 0.142931 0.006093 0.102755
Si Si3 0.470512 0.381859 0.050976
Si Si4 0.750000 0.158979 0.500000
Si Si5 0.309820 0.223730 0.683556
O O1 0.905275 0.097292 0.656945
O O2 0.968451 0.121860 0.831423
O O3 0.879337 0.265237 0.775136
O O4 0.000000 0.250000 0.692101
O O5 0.104338 0.912680 0.034330
O O6 0.177773 0.917086 0.174980
O O7 0.195993 0.079738 0.049304
O O8 0.500000 0.250000 0.026218
O O9 0.500000 0.500000 0.000000
O O10 0.712034 0.231001 0.580728
O O11 0.250000 0.250000 0.750000
#
# Coordination Sequence:
#
# PCOD9532537 Si02
#       5
#    16  16  16   8  16
#     4  10  23  47  75 105 155 200 252 323 399 470
#     4  11  25  47  72 108 150 196 259 327 393 474
#     4  10  23  42  72 105 147 195 247 312 387 464
#     4  12  26  42  78 110 146 204 256 318 390 476
#     4  11  23  46  77 104 151 196 251 323 389 467
#
# _framework density 22.118932000000001
#
# number of rings (size 3 to 8) (size 9 to 14) (size 15 to 20)
#    0.000    1.333    2.222    3.333    9.333    0.889 
#    0.000    1.111   19.556    0.000    0.000    0.000 
#    0.000    0.000    0.000    0.000    0.000    0.000 
#
# Total GULP energy -200439.320631 kJ/mol
# GULP energy per Si atom -5567.758906 kJ/mol
# Density = 2.206859 g / cm^3
# Si number density = 22.118932 Si / 1000 Ang^3
#
#
#
# Elastic Constant Matrix: (Units=GPa)
#
#
# Indices 1 2 3 4 5 6 
#
# 1 208.8535 115.1713 82.8304 0.0000 0.0000 0.0000
# 2 115.1713 140.4180 47.5467 0.0000 0.0000 0.0000
# 3 82.8304 47.5467 69.6071 0.0000 0.0000 0.0000
# 4 0.0000 0.0000 0.0000 2.7866 0.0000 0.0000
# 5 0.0000 0.0000 0.0000 0.0000 33.2092 0.0000
# 6 0.0000 0.0000 0.0000 0.0000 0.0000 64.0795
#
#
#
# Elastic Compliance Matrix: (Units=1/GPa)
#
#
# Indices 1 2 3 4 5 6 
#
# 1 0.012742 -0.006916 -0.010438 0.000000 0.000000 0.000000
# 2 -0.006916 0.013019 -0.000662 0.000000 0.000000 0.000000
# 3 -0.010438 -0.000662 0.027239 0.000000 0.000000 0.000000
# 4 0.000000 0.000000 0.000000 0.358866 0.000000 0.000000
# 5 0.000000 0.000000 0.000000 0.000000 0.030112 0.000000
# 6 0.000000 0.000000 0.000000 0.000000 0.000000 0.015606
#
#
# Mechanical properties :
#
#
# Convention : Reuss Voigt Hill
#
# Bulk Modulus (GPa) = 58.93912 101.10836 80.02374
# Shear Modulus (GPa) = 10.01457 31.57039 20.79248
#
# Velocity S-wave (km/s) = 2.13012 3.78206 3.06932
# Velocity P-wave (km/s) = 5.72313 8.05497 6.98701
#
# Compressibility (1/GPa) = 0.01696666
#
# Stress axis : x y z
#
# Youngs Moduli (GPa) = 78.48284 76.81215 36.71142
#
# Poissons Ratio (x) = 0.53126 0.38318
# Poissons Ratio (y) = 0.54282 0.02432
# Poissons Ratio (z) = 0.81918 0.05088
#
# Static dielectric constant tensor:
#      x y z
#    x 1.895350 0.000000 0.000000 
#    y 0.000000 1.930360 0.000000 
#    z 0.000000 0.000000 2.111160 
# 
# From -- ./inp_files/18474.got.cif
#   From: 2010.05.17/outbox.cif.g08.bks.cpg/sg73_10_cif.got.tgz:18474.got - 2010.06.03 17:35:07.
