data_PCOD9532610
_publ_section_title
;
Structure prediction by ZEFSAII (Michael W. Deem and Ramdas Pophale) SiO2 
 PCOD9532610
Probable space group: I B C A 
;
_chemical_formula_sum "Si O2"
_cell_formula_units_Z 112
_cell_length_a 15.007169
_cell_length_b 23.302156
_cell_length_c 14.213459
_cell_angle_alpha 90.000000
_cell_angle_beta 90.000000
_cell_angle_gamma 90.000000
_cell_volume 4970.437987
_symmetry_space_group_name_H-M "I B C A "
_symmetry_group_IT_number 73
_symmetry_cell_setting 'orthorhombic'
loop_
_space_group_symop_operation_xyz
x,y,z
-x,1/2-y,z
x,-y,1/2-z
1/2-x,y,-z
-x,-y,-z
x,1/2+y,-z
-x,y,1/2+z
1/2+x,-y,z
1/2+x,1/2+y,1/2+z
1/2-x,-y,1/2+z
1/2+x,1/2-y,-z
-x,1/2+y,1/2-z
1/2-x,1/2-y,1/2-z
1/2+x,y,1/2-z
1/2-x,1/2+y,z
x,1/2-y,1/2+z
loop_
_atom_site_type_symbol
_atom_site_label
_atom_site_fract_x
_atom_site_fract_y
_atom_site_fract_z
Si Si1 0.178915 0.839248 0.077662
Si Si2 0.611797 0.361591 0.916255
Si Si3 0.068586 0.333449 0.188746
Si Si4 0.222396 0.083308 0.703512
Si Si5 0.217417 0.743106 0.856020
Si Si6 0.724225 0.035058 0.391464
Si Si7 0.020618 0.316897 0.407847
O O1 0.209385 0.866454 0.176338
O O2 0.203364 0.772164 0.084989
O O3 0.074518 0.847557 0.069490
O O4 0.250000 0.862390 0.000000
O O5 0.525573 0.340283 0.860179
O O6 0.692530 0.320186 0.886362
O O7 0.633319 0.427600 0.891369
O O8 0.590860 0.347705 0.024520
O O9 0.126594 0.391418 0.176003
O O10 0.128775 0.283502 0.141036
O O11 0.050688 0.321162 0.298996
O O12 0.218073 0.068031 0.812852
O O13 0.263940 0.029566 0.646654
O O14 0.250000 0.750000 0.750000
O O15 0.750000 0.036799 0.500000
O O16 0.000000 0.250000 0.428890
#
# Coordination Sequence:
#
# PCOD9532610 Si02
#       7
#    16  16  16  16  16  16  16
#     4  11  22  39  63  90 127 176 218 261 328 413
#     4  12  24  40  63  98 135 170 220 278 337 413
#     4  11  22  41  64  93 132 172 217 278 339 401
#     4  10  23  45  67  89 121 170 227 279 334 406
#     4  11  22  38  62  91 130 177 217 262 333 422
#     4  11  24  44  67  92 124 168 221 279 338 406
#     4  12  23  37  62 101 139 172 212 273 342 408
#
# _framework density 22.533225999999999
#
# number of rings (size 3 to 8) (size 9 to 14) (size 15 to 20)
#    0.000    0.857    0.000   10.286    0.000    1.714 
#    0.000    8.571    0.000    0.000    0.000    0.000 
#    0.000    0.000    0.000    0.000    0.000    0.000 
#
# Total GULP energy -312868.816326 kJ/mol
# GULP energy per Si atom -5586.943149 kJ/mol
# Density = 2.248194 g / cm^3
# Si number density = 22.533226 Si / 1000 Ang^3
#
#
#
# Elastic Constant Matrix: (Units=GPa)
#
#
# Indices 1 2 3 4 5 6 
#
# 1 89.3388 37.8908 13.7892 0.0000 0.0000 0.0000
# 2 37.8908 111.1128 16.6944 0.0000 0.0000 0.0000
# 3 13.7892 16.6944 111.5159 0.0001 0.0000 0.0000
# 4 0.0000 0.0000 0.0001 33.1502 0.0000 0.0000
# 5 0.0000 0.0000 0.0000 0.0000 43.7462 0.0000
# 6 0.0000 0.0000 0.0000 0.0000 0.0000 30.8486
#
#
#
# Elastic Compliance Matrix: (Units=1/GPa)
#
#
# Indices 1 2 3 4 5 6 
#
# 1 0.013190 -0.004351 -0.000980 0.000000 0.000000 0.000000
# 2 -0.004351 0.010642 -0.001055 0.000000 0.000000 0.000000
# 3 -0.000980 -0.001055 0.009246 0.000000 0.000000 0.000000
# 4 0.000000 0.000000 0.000000 0.030166 0.000000 0.000000
# 5 0.000000 0.000000 0.000000 0.000000 0.022859 0.000000
# 6 0.000000 0.000000 0.000000 0.000000 0.000000 0.032416
#
#
# Mechanical properties :
#
#
# Convention : Reuss Voigt Hill
#
# Bulk Modulus (GPa) = 49.24353 49.85739 49.55046
# Shear Modulus (GPa) = 36.21625 37.78855 37.00240
#
# Velocity S-wave (km/s) = 4.01339 4.09958 4.05671
# Velocity P-wave (km/s) = 6.58616 6.67705 6.63176
#
# Compressibility (1/GPa) = 0.02030724
#
# Stress axis : x y z
#
# Youngs Moduli (GPa) = 75.81622 93.96696 108.14985
#
# Poissons Ratio (x) = 0.40882 0.10595
# Poissons Ratio (y) = 0.32985 0.11412
# Poissons Ratio (z) = 0.07427 0.09915
#
# Static dielectric constant tensor:
#      x y z
#    x 1.817680 0.000000 0.000000 
#    y 0.000000 1.871160 0.000000 
#    z 0.000000 0.000000 1.907110 
# 
# From -- ./inp_files/17273.got.cif
#   From: 2010.05.17/outbox.cif.g08.bks.cpg/sg73_9_cif.got.tgz:17273.got - 2010.06.03 17:35:07.
