data_PCOD9532257
_publ_section_title
;
Structure prediction by ZEFSAII (Michael W. Deem and Ramdas Pophale) SiO2 
 PCOD9532257
Probable space group: I B C A 
;
_chemical_formula_sum "Si O2"
_cell_formula_units_Z 112
_cell_length_a 32.809661
_cell_length_b 10.799274
_cell_length_c 14.584609
_cell_angle_alpha 90.000000
_cell_angle_beta 90.000000
_cell_angle_gamma 90.000000
_cell_volume 5167.626230
_symmetry_space_group_name_H-M "I B C A "
_symmetry_group_IT_number 73
_symmetry_cell_setting 'orthorhombic'
loop_
_space_group_symop_operation_xyz
x,y,z
-x,1/2-y,z
x,-y,1/2-z
1/2-x,y,-z
-x,-y,-z
x,1/2+y,-z
-x,y,1/2+z
1/2+x,-y,z
1/2+x,1/2+y,1/2+z
1/2-x,-y,1/2+z
1/2+x,1/2-y,-z
-x,1/2+y,1/2-z
1/2-x,1/2-y,1/2-z
1/2+x,y,1/2-z
1/2-x,1/2+y,z
x,1/2-y,1/2+z
loop_
_atom_site_type_symbol
_atom_site_label
_atom_site_fract_x
_atom_site_fract_y
_atom_site_fract_z
Si Si1 0.831417 0.136256 0.931392
Si Si2 0.703185 0.374934 0.967120
Si Si3 0.782244 0.360979 0.243275
Si Si4 0.485258 0.047688 0.599914
Si Si5 0.069586 0.385572 0.305394
Si Si6 0.083690 0.776864 0.042645
Si Si7 0.453021 0.795382 0.647479
O O1 0.814172 0.143706 0.827454
O O2 0.879958 0.128936 0.939824
O O3 0.812358 0.015358 0.979536
O O4 0.819247 0.264330 0.980634
O O5 0.699112 0.351618 0.858093
O O6 0.750000 0.369686 0.000000
O O7 0.763271 0.500000 0.250000
O O8 0.750000 0.250000 0.250000
O O9 0.524952 0.071803 0.660230
O O10 0.458249 0.167343 0.581689
O O11 0.500000 0.000000 0.500000
O O12 0.457708 0.942270 0.645961
O O13 0.088054 0.500000 0.250000
O O14 0.092752 0.343847 0.396353
O O15 0.064389 0.270592 0.236837
O O16 0.074385 0.745908 0.938123
O O17 0.500000 0.750000 0.634935
#
# Coordination Sequence:
#
# PCOD9532257 Si02
#       7
#    16  16  16  16  16  16  16
#     4  11  27  44  70 107 143 184 225 290 362 421
#     4  11  23  45  76 102 138 178 234 280 345 434
#     4  10  22  43  71 104 134 173 225 280 341 419
#     4  12  23  43  68  91 132 183 244 290 338 412
#     4  12  25  42  69  98 129 182 246 289 344 418
#     4  12  27  44  65  99 146 177 229 295 361 413
#     4  12  23  41  68  97 126 183 235 290 344 409
#
# _framework density 21.673393000000001
#
# number of rings (size 3 to 8) (size 9 to 14) (size 15 to 20)
#    0.000    0.571    5.714    1.714    4.000    1.143 
#    5.143    0.714    0.000    0.000    0.000    0.000 
#    0.000    0.000    0.000    0.000    0.000    0.000 
#
# Total GULP energy -313256.123924 kJ/mol
# GULP energy per Si atom -5593.859356 kJ/mol
# Density = 2.162406 g / cm^3
# Si number density = 21.673393 Si / 1000 Ang^3
#
#
#
# Elastic Constant Matrix: (Units=GPa)
#
#
# Indices 1 2 3 4 5 6 
#
# 1 42.6425 12.9735 9.4314 0.0000 0.0000 0.0000
# 2 12.9735 83.2138 43.3299 0.0000 0.0000 0.0000
# 3 9.4314 43.3299 143.2504 0.0000 0.0000 0.0000
# 4 0.0000 0.0000 0.0000 42.3568 0.0000 0.0000
# 5 0.0000 0.0000 0.0000 0.0000 1.3255 0.0000
# 6 0.0000 0.0000 0.0000 0.0000 0.0000 25.7576
#
#
#
# Elastic Compliance Matrix: (Units=1/GPa)
#
#
# Indices 1 2 3 4 5 6 
#
# 1 0.024654 -0.003559 -0.000547 0.000000 0.000000 0.000000
# 2 -0.003559 0.014778 -0.004236 0.000000 0.000000 0.000000
# 3 -0.000547 -0.004236 0.008298 0.000000 0.000000 0.000000
# 4 0.000000 0.000000 0.000000 0.023609 0.000000 0.000000
# 5 0.000000 0.000000 0.000000 0.000000 0.754417 0.000000
# 6 0.000000 0.000000 0.000000 0.000000 0.000000 0.038823
#
#
# Mechanical properties :
#
#
# Convention : Reuss Voigt Hill
#
# Bulk Modulus (GPa) = 32.20887 44.50847 38.35867
# Shear Modulus (GPa) = 5.60782 27.44613 16.52697
#
# Velocity S-wave (km/s) = 1.61029 3.56244 2.76442
# Velocity P-wave (km/s) = 4.28377 6.12388 5.28453
#
# Compressibility (1/GPa) = 0.03104735
#
# Stress axis : x y z
#
# Youngs Moduli (GPa) = 40.56056 67.67001 120.51206
#
# Poissons Ratio (x) = 0.24085 0.06588
# Poissons Ratio (y) = 0.14436 0.51043
# Poissons Ratio (z) = 0.02217 0.28662
#
# Static dielectric constant tensor:
#      x y z
#    x 1.771340 0.000000 0.000000 
#    y 0.000000 1.854460 0.000000 
#    z 0.000000 0.000000 1.736530 
# 
# From -- ./inp_files/20047.got.cif
#   From: 2010.05.17/outbox.cif.g08.bks.cpg/sg73_11_cif.got.tgz:20047.got - 2010.06.03 17:35:07.
