data_PCOD9532356
_publ_section_title
;
Structure prediction by ZEFSAII (Michael W. Deem and Ramdas Pophale) SiO2 
 PCOD9532356
Probable space group: I B C A 
;
_chemical_formula_sum "Si O2"
_cell_formula_units_Z 96
_cell_length_a 8.196228
_cell_length_b 22.415501
_cell_length_c 24.744084
_cell_angle_alpha 90.000000
_cell_angle_beta 90.000000
_cell_angle_gamma 90.000000
_cell_volume 4546.046381
_symmetry_space_group_name_H-M "I B C A "
_symmetry_group_IT_number 73
_symmetry_cell_setting 'orthorhombic'
loop_
_space_group_symop_operation_xyz
x,y,z
-x,1/2-y,z
x,-y,1/2-z
1/2-x,y,-z
-x,-y,-z
x,1/2+y,-z
-x,y,1/2+z
1/2+x,-y,z
1/2+x,1/2+y,1/2+z
1/2-x,-y,1/2+z
1/2+x,1/2-y,-z
-x,1/2+y,1/2-z
1/2-x,1/2-y,1/2-z
1/2+x,y,1/2-z
1/2-x,1/2+y,z
x,1/2-y,1/2+z
loop_
_atom_site_type_symbol
_atom_site_label
_atom_site_fract_x
_atom_site_fract_y
_atom_site_fract_z
Si Si1 0.769339 0.189190 0.685934
Si Si2 0.309753 0.907887 0.095942
Si Si3 0.665973 0.865357 0.922220
Si Si4 0.840376 0.325119 0.692926
Si Si5 0.998596 0.820796 0.976991
Si Si6 0.502911 0.984475 0.936732
O O1 0.671172 0.157216 0.638622
O O2 0.762338 0.260808 0.678464
O O3 0.700413 0.169341 0.743891
O O4 0.963735 0.176456 0.684459
O O5 0.278840 0.876221 0.152958
O O6 0.358000 0.856333 0.053030
O O7 0.158502 0.948196 0.078234
O O8 0.458879 0.955349 0.095826
O O9 0.835679 0.844450 0.947923
O O10 0.644540 0.935906 0.926836
O O11 0.526070 0.836642 0.960138
O O12 0.000000 0.750000 0.969709
O O13 0.500000 0.000000 0.000000
#
# Coordination Sequence:
#
# PCOD9532356 Si02
#       6
#    16  16  16  16  16  16
#     4  10  22  45  72 107 143 177 237 288 372 427
#     4  12  25  46  73 101 141 193 245 291 367 424
#     4  11  24  42  70  98 143 184 234 288 354 430
#     4  10  23  44  75 103 139 189 227 302 356 434
#     4  11  24  43  68 105 145 182 229 300 365 429
#     4  12  27  45  71 101 142 196 243 290 352 435
#
# _framework density 21.117251
#
# number of rings (size 3 to 8) (size 9 to 14) (size 15 to 20)
#    0.000    1.000    3.333    2.500    4.667    4.000 
#    3.000    0.833    0.000    0.000    0.000    0.000 
#    0.000    0.000    0.000    0.000    0.000    0.000 
#
# Total GULP energy -268612.174249 kJ/mol
# GULP energy per Si atom -5596.086964 kJ/mol
# Density = 2.106919 g / cm^3
# Si number density = 21.117251 Si / 1000 Ang^3
#
#
#
# Elastic Constant Matrix: (Units=GPa)
#
#
# Indices 1 2 3 4 5 6 
#
# 1 79.0897 51.6815 39.0705 0.0000 0.0000 0.0000
# 2 51.6815 176.3199 98.9363 0.0000 0.0000 0.0000
# 3 39.0705 98.9363 169.0380 0.0000 0.0000 0.0000
# 4 0.0000 0.0000 0.0000 27.5533 0.0000 0.0000
# 5 0.0000 0.0000 0.0000 0.0000 24.7610 0.0000
# 6 0.0000 0.0000 0.0000 0.0000 0.0000 34.1930
#
#
#
# Elastic Compliance Matrix: (Units=1/GPa)
#
#
# Indices 1 2 3 4 5 6 
#
# 1 0.015861 -0.003859 -0.001407 0.000000 0.000000 0.000000
# 2 -0.003859 0.009384 -0.004600 0.000000 0.000000 0.000000
# 3 -0.001407 -0.004600 0.008934 0.000000 0.000000 0.000000
# 4 0.000000 0.000000 0.000000 0.036293 0.000000 0.000000
# 5 0.000000 0.000000 0.000000 0.000000 0.040386 0.000000
# 6 0.000000 0.000000 0.000000 0.000000 0.000000 0.029246
#
#
# Mechanical properties :
#
#
# Convention : Reuss Voigt Hill
#
# Bulk Modulus (GPa) = 69.22914 89.31382 79.27148
# Shear Modulus (GPa) = 30.36694 32.95208 31.65951
#
# Velocity S-wave (km/s) = 3.79623 3.95452 3.87618
# Velocity P-wave (km/s) = 7.21592 7.95217 7.59298
#
# Compressibility (1/GPa) = 0.01444478
#
# Stress axis : x y z
#
# Youngs Moduli (GPa) = 63.04783 106.56291 111.93675
#
# Poissons Ratio (x) = 0.41128 0.15751
# Poissons Ratio (y) = 0.24333 0.51495
# Poissons Ratio (z) = 0.08871 0.49023
#
# Static dielectric constant tensor:
#      x y z
#    x 1.871460 0.000000 0.000000 
#    y 0.000000 1.750470 0.000000 
#    z 0.000000 0.000000 1.748550 
# 
# From -- ./inp_files/28397.got.cif
#   From: 2010.05.17/outbox.cif.g08.bks.cpg/sg73_15_cif.got.tgz:28397.got - 2010.06.03 17:35:07.
