data_PCOD9532332
_publ_section_title
;
Structure prediction by ZEFSAII (Michael W. Deem and Ramdas Pophale) SiO2 
 PCOD9532332
Probable space group: I B C A 
;
_chemical_formula_sum "Si O2"
_cell_formula_units_Z 88
_cell_length_a 13.551344
_cell_length_b 28.366730
_cell_length_c 9.352747
_cell_angle_alpha 90.000000
_cell_angle_beta 90.000000
_cell_angle_gamma 90.000000
_cell_volume 3595.264375
_symmetry_space_group_name_H-M "I B C A "
_symmetry_group_IT_number 73
_symmetry_cell_setting 'orthorhombic'
loop_
_space_group_symop_operation_xyz
x,y,z
-x,1/2-y,z
x,-y,1/2-z
1/2-x,y,-z
-x,-y,-z
x,1/2+y,-z
-x,y,1/2+z
1/2+x,-y,z
1/2+x,1/2+y,1/2+z
1/2-x,-y,1/2+z
1/2+x,1/2-y,-z
-x,1/2+y,1/2-z
1/2-x,1/2-y,1/2-z
1/2+x,y,1/2-z
1/2-x,1/2+y,z
x,1/2-y,1/2+z
loop_
_atom_site_type_symbol
_atom_site_label
_atom_site_fract_x
_atom_site_fract_y
_atom_site_fract_z
Si Si1 0.916313 0.054602 0.512037
Si Si2 0.588779 0.670760 0.240933
Si Si3 0.935879 0.869698 0.562319
Si Si4 0.047334 0.000000 0.750000
Si Si5 0.696335 0.636326 0.679115
Si Si6 0.174491 0.760340 0.374523
O O1 0.841934 0.092357 0.585544
O O2 0.000671 0.083368 0.426489
O O3 0.972321 0.028322 0.642531
O O4 0.882261 0.023107 0.375480
O O5 0.503248 0.669161 0.357779
O O6 0.689168 0.651456 0.315189
O O7 0.595074 0.720995 0.161280
O O8 0.574293 0.637002 0.105571
O O9 0.838107 0.871517 0.657381
O O10 0.645334 0.685073 0.624190
O O11 0.250000 0.748912 0.500000
O O12 0.250000 0.750000 0.250000
#
# Coordination Sequence:
#
# PCOD9532332 Si02
#       6
#    16  16  16   8  16  16
#     4  11  22  43  73 110 138 194 233 301 390 439
#     4  11  25  44  70 100 154 195 250 301 354 435
#     4  12  23  45  68 110 136 193 250 297 373 434
#     4  10  22  44  76 106 150 180 236 326 384 452
#     4  11  24  43  71 103 147 199 248 300 373 445
#     4  10  23  43  65 100 143 201 242 299 360 411
#
# _framework density 24.476642999999999
#
# number of rings (size 3 to 8) (size 9 to 14) (size 15 to 20)
#    0.000    1.091    3.636    2.727    5.091    0.727 
#    3.273    0.000    0.000   14.182    0.000    0.000 
#    0.000    0.000    0.000    0.000    0.000    0.000 
#
# Total GULP energy -245412.461740 kJ/mol
# GULP energy per Si atom -5577.555949 kJ/mol
# Density = 2.442093 g / cm^3
# Si number density = 24.476643 Si / 1000 Ang^3
#
#
#
# Elastic Constant Matrix: (Units=GPa)
#
#
# Indices 1 2 3 4 5 6 
#
# 1 72.5514 17.6868 21.4159 0.0001 -0.0002 -0.0004
# 2 17.6868 86.4614 42.6041 -0.0001 0.0002 0.0002
# 3 21.4159 42.6041 180.8195 -0.0036 0.0018 0.0012
# 4 0.0001 -0.0001 -0.0036 46.4190 0.0009 0.0014
# 5 -0.0002 0.0002 0.0018 0.0009 48.0656 0.0000
# 6 -0.0004 0.0002 0.0012 0.0014 0.0000 55.4990
#
#
#
# Elastic Compliance Matrix: (Units=1/GPa)
#
#
# Indices 1 2 3 4 5 6 
#
# 1 0.014722 -0.002435 -0.001170 0.000000 0.000000 0.000000
# 2 -0.002435 0.013488 -0.002890 0.000000 0.000000 0.000000
# 3 -0.001170 -0.002890 0.006350 0.000000 0.000000 0.000000
# 4 0.000000 0.000000 0.000000 0.021543 0.000000 -0.000001
# 5 0.000000 0.000000 0.000000 0.000000 0.020805 0.000000
# 6 0.000000 0.000000 0.000000 -0.000001 0.000000 0.018018
#
#
# Mechanical properties :
#
#
# Convention : Reuss Voigt Hill
#
# Bulk Modulus (GPa) = 46.35923 55.91619 51.13771
# Shear Modulus (GPa) = 43.43841 47.20509 45.32175
#
# Velocity S-wave (km/s) = 4.21728 4.39632 4.30773
# Velocity P-wave (km/s) = 6.53416 6.97599 6.75869
#
# Compressibility (1/GPa) = 0.02157068
#
# Stress axis : x y z
#
# Youngs Moduli (GPa) = 67.92407 74.14099 157.48618
#
# Poissons Ratio (x) = 0.18054 0.18425
# Poissons Ratio (y) = 0.16541 0.45506
# Poissons Ratio (z) = 0.07947 0.21423
#
# Static dielectric constant tensor:
#      x y z
#    x 2.158290 -0.000010 0.000000 
#    y -0.000010 1.830860 0.000000 
#    z 0.000000 0.000000 1.960880 
# 
# From -- ./inp_files/6647.got.cif
#   From: 2010.05.17/outbox.cif.g08.bks.cpg/sg73_4_cif.got.tgz:6647.got - 2010.06.03 17:35:07.
