data_PCOD9532561
_publ_section_title
;
Structure prediction by ZEFSAII (Michael W. Deem and Ramdas Pophale) SiO2 
 PCOD9532561
Probable space group: I B C A 
;
_chemical_formula_sum "Si O2"
_cell_formula_units_Z 80
_cell_length_a 20.704056
_cell_length_b 14.234237
_cell_length_c 11.866600
_cell_angle_alpha 90.000000
_cell_angle_beta 90.000000
_cell_angle_gamma 90.000000
_cell_volume 3497.163440
_symmetry_space_group_name_H-M "I B C A "
_symmetry_group_IT_number 73
_symmetry_cell_setting 'orthorhombic'
loop_
_space_group_symop_operation_xyz
x,y,z
-x,1/2-y,z
x,-y,1/2-z
1/2-x,y,-z
-x,-y,-z
x,1/2+y,-z
-x,y,1/2+z
1/2+x,-y,z
1/2+x,1/2+y,1/2+z
1/2-x,-y,1/2+z
1/2+x,1/2-y,-z
-x,1/2+y,1/2-z
1/2-x,1/2-y,1/2-z
1/2+x,y,1/2-z
1/2-x,1/2+y,z
x,1/2-y,1/2+z
loop_
_atom_site_type_symbol
_atom_site_label
_atom_site_fract_x
_atom_site_fract_y
_atom_site_fract_z
Si Si1 0.627070 0.915006 0.454846
Si Si2 0.688693 0.742512 0.829657
Si Si3 0.500288 0.596577 0.310976
Si Si4 0.917645 0.211403 0.147462
Si Si5 0.615962 0.377064 0.017588
O O1 0.683477 0.856095 0.395113
O O2 0.561121 0.884868 0.389700
O O3 0.616701 0.874491 0.580222
O O4 0.634390 0.027249 0.453567
O O5 0.750000 0.750000 0.750000
O O6 0.628437 0.751389 0.745462
O O7 0.675713 0.825399 0.920395
O O8 0.486108 0.500000 0.250000
O O9 0.521212 0.665606 0.210498
O O10 0.562477 0.591838 0.391420
O O11 0.917986 0.296058 0.057110
#
# Coordination Sequence:
#
# PCOD9532561 Si02
#       5
#    16  16  16  16  16
#     4  11  24  42  67 104 139 184 235 287 357 427
#     4  10  25  47  71  96 138 185 242 302 341 413
#     4  11  23  41  68  98 145 183 224 289 349 436
#     4  10  24  44  66  98 140 178 235 285 356 414
#     4  10  23  43  70 102 139 186 236 280 365 427
#
# _framework density 22.875681
#
# number of rings (size 3 to 8) (size 9 to 14) (size 15 to 20)
#    0.000    1.600    2.000    0.600    2.800   12.000 
#    0.000    6.000    0.000    0.000    0.000    0.000 
#    0.000    0.000    0.000    0.000    0.000    0.000 
#
# Total GULP energy -223623.996531 kJ/mol
# GULP energy per Si atom -5590.599913 kJ/mol
# Density = 2.282362 g / cm^3
# Si number density = 22.875681 Si / 1000 Ang^3
#
#
#
# Elastic Constant Matrix: (Units=GPa)
#
#
# Indices 1 2 3 4 5 6 
#
# 1 58.4301 28.8540 20.3419 0.0000 0.0000 0.0000
# 2 28.8540 152.3549 51.1324 0.0000 0.0000 0.0000
# 3 20.3419 51.1324 90.7793 0.0000 0.0000 0.0000
# 4 0.0000 0.0000 0.0000 30.6007 0.0000 0.0000
# 5 0.0000 0.0000 0.0000 0.0000 36.2934 0.0000
# 6 0.0000 0.0000 0.0000 0.0000 0.0000 15.4457
#
#
#
# Elastic Compliance Matrix: (Units=1/GPa)
#
#
# Indices 1 2 3 4 5 6 
#
# 1 0.019447 -0.002738 -0.002815 0.000000 0.000000 0.000000
# 2 -0.002738 0.008479 -0.004162 0.000000 0.000000 0.000000
# 3 -0.002815 -0.004162 0.013991 0.000000 0.000000 0.000000
# 4 0.000000 0.000000 0.000000 0.032679 0.000000 0.000000
# 5 0.000000 0.000000 0.000000 0.000000 0.027553 0.000000
# 6 0.000000 0.000000 0.000000 0.000000 0.000000 0.064743
#
#
# Mechanical properties :
#
#
# Convention : Reuss Voigt Hill
#
# Bulk Modulus (GPa) = 44.47358 55.80230 50.13794
# Shear Modulus (GPa) = 25.79729 29.88371 27.84050
#
# Velocity S-wave (km/s) = 3.36179 3.61827 3.49239
# Velocity P-wave (km/s) = 5.87814 6.47322 6.18284
#
# Compressibility (1/GPa) = 0.02248526
#
# Stress axis : x y z
#
# Youngs Moduli (GPa) = 51.42249 117.93650 71.47386
#
# Poissons Ratio (x) = 0.32292 0.20123
# Poissons Ratio (y) = 0.14080 0.29750
# Poissons Ratio (z) = 0.14477 0.49090
#
# Static dielectric constant tensor:
#      x y z
#    x 1.635330 0.000000 0.000000 
#    y 0.000000 1.878310 0.000000 
#    z 0.000000 0.000000 1.873920 
# 
# From -- ./inp_files/13410.got.cif
#   From: 2010.05.17/outbox.cif.g08.bks.cpg/sg73_7_cif.got.tgz:13410.got - 2010.06.03 17:35:07.
