data_PCOD9532281
_publ_section_title
;
Structure prediction by ZEFSAII (Michael W. Deem and Ramdas Pophale) SiO2 
 PCOD9532281
Probable space group: I B C A 
;
_chemical_formula_sum "Si O2"
_cell_formula_units_Z 64
_cell_length_a 11.145955
_cell_length_b 24.731621
_cell_length_c 10.816320
_cell_angle_alpha 90.000000
_cell_angle_beta 90.000000
_cell_angle_gamma 90.000000
_cell_volume 2981.600106
_symmetry_space_group_name_H-M "I B C A "
_symmetry_group_IT_number 73
_symmetry_cell_setting 'orthorhombic'
loop_
_space_group_symop_operation_xyz
x,y,z
-x,1/2-y,z
x,-y,1/2-z
1/2-x,y,-z
-x,-y,-z
x,1/2+y,-z
-x,y,1/2+z
1/2+x,-y,z
1/2+x,1/2+y,1/2+z
1/2-x,-y,1/2+z
1/2+x,1/2-y,-z
-x,1/2+y,1/2-z
1/2-x,1/2-y,1/2-z
1/2+x,y,1/2-z
1/2-x,1/2+y,z
x,1/2-y,1/2+z
loop_
_atom_site_type_symbol
_atom_site_label
_atom_site_fract_x
_atom_site_fract_y
_atom_site_fract_z
Si Si1 0.422604 0.149045 0.998618
Si Si2 0.233950 0.690441 0.199179
Si Si3 0.250000 0.050797 0.000000
Si Si4 0.186696 0.500000 0.250000
Si Si5 0.661429 0.603783 0.108163
O O1 0.342998 0.177263 0.893001
O O2 0.555580 0.138282 0.953919
O O3 0.390206 0.182075 0.122254
O O4 0.363760 0.089973 0.016881
O O5 0.250000 0.750000 0.250000
O O6 0.232129 0.644702 0.303313
O O7 0.238868 0.020794 0.131174
O O8 0.119593 0.447948 0.190022
O O9 0.750000 0.584912 0.000000
#
# Coordination Sequence:
#
# PCOD9532281 Si02
#       5
#    16  16   8   8  16
#     4  10  24  47  69 100 142 185 234 299 364 437
#     4  10  24  49  71  99 140 184 236 298 369 438
#     4  10  22  44  66  98 144 186 242 296 360 430
#     4  12  22  44  70 104 144 194 244 302 362 448
#     4  12  27  43  71 108 142 188 246 299 369 440
#
# _framework density 21.464984000000001
#
# number of rings (size 3 to 8) (size 9 to 14) (size 15 to 20)
#    0.000    1.500    6.250    0.000    7.000    3.000 
#    0.000    0.000    0.000    0.000    0.000    0.000 
#    0.000    0.000    0.000    0.000    0.000    0.000 
#
# Total GULP energy -178548.757434 kJ/mol
# GULP energy per Si atom -5579.648670 kJ/mol
# Density = 2.141613 g / cm^3
# Si number density = 21.464984 Si / 1000 Ang^3
#
#
#
# Elastic Constant Matrix: (Units=GPa)
#
#
# Indices 1 2 3 4 5 6 
#
# 1 39.6829 6.4897 24.2816 0.0000 0.0000 0.0000
# 2 6.4897 130.3388 65.4691 -0.0001 0.0000 0.0000
# 3 24.2816 65.4691 151.0803 -0.0003 -0.0001 -0.0001
# 4 0.0000 -0.0001 -0.0003 38.5893 -0.0001 0.0000
# 5 0.0000 0.0000 -0.0001 -0.0001 18.3035 0.0000
# 6 0.0000 0.0000 -0.0001 0.0000 0.0000 0.3289
#
#
#
# Elastic Compliance Matrix: (Units=1/GPa)
#
#
# Indices 1 2 3 4 5 6 
#
# 1 0.028073 0.001110 -0.004993 0.000000 0.000000 0.000000
# 2 0.001110 0.009851 -0.004447 0.000000 0.000000 -0.000001
# 3 -0.004993 -0.004447 0.009349 0.000000 0.000000 0.000002
# 4 0.000000 0.000000 0.000000 0.025914 0.000000 -0.000001
# 5 0.000000 0.000000 0.000000 0.000000 0.054634 -0.000005
# 6 0.000000 -0.000001 0.000002 -0.000001 -0.000005 3.040596
#
#
# Mechanical properties :
#
#
# Convention : Reuss Voigt Hill
#
# Bulk Modulus (GPa) = 32.66603 57.06474 44.86539
# Shear Modulus (GPa) = 1.56481 26.43510 13.99995
#
# Velocity S-wave (km/s) = 0.85474 3.51315 2.55664
# Velocity P-wave (km/s) = 4.02808 6.56498 5.44630
#
# Compressibility (1/GPa) = 0.03061284
#
# Stress axis : x y z
#
# Youngs Moduli (GPa) = 35.62084 101.51398 106.96758
#
# Poissons Ratio (x) = -0.11270 0.53410
# Poissons Ratio (y) = -0.03955 0.47571
# Poissons Ratio (z) = 0.17786 0.45145
#
# Static dielectric constant tensor:
#      x y z
#    x 1.781150 0.000000 0.000000 
#    y 0.000000 1.804480 0.000000 
#    z 0.000000 0.000000 1.818090 
# 
# From -- ./inp_files/9590.got.cif
#   From: 2010.05.17/outbox.cif.g08.bks.cpg/sg73_5_cif.got.tgz:9590.got - 2010.06.03 17:35:07.
