data_PCOD9532738
_publ_section_title
;
Structure prediction by ZEFSAII (Michael W. Deem and Ramdas Pophale) SiO2 
 PCOD9532738
Probable space group: I B C A 
;
_chemical_formula_sum "Si O2"
_cell_formula_units_Z 72
_cell_length_a 15.064120
_cell_length_b 21.041623
_cell_length_c 10.511500
_cell_angle_alpha 90.000000
_cell_angle_beta 90.000000
_cell_angle_gamma 90.000000
_cell_volume 3331.867301
_symmetry_space_group_name_H-M "I B C A "
_symmetry_group_IT_number 73
_symmetry_cell_setting 'orthorhombic'
loop_
_space_group_symop_operation_xyz
x,y,z
-x,1/2-y,z
x,-y,1/2-z
1/2-x,y,-z
-x,-y,-z
x,1/2+y,-z
-x,y,1/2+z
1/2+x,-y,z
1/2+x,1/2+y,1/2+z
1/2-x,-y,1/2+z
1/2+x,1/2-y,-z
-x,1/2+y,1/2-z
1/2-x,1/2-y,1/2-z
1/2+x,y,1/2-z
1/2-x,1/2+y,z
x,1/2-y,1/2+z
loop_
_atom_site_type_symbol
_atom_site_label
_atom_site_fract_x
_atom_site_fract_y
_atom_site_fract_z
Si Si1 0.573096 0.630513 0.727698
Si Si2 0.000000 0.750000 0.413302
Si Si3 0.716590 0.450600 0.866251
Si Si4 0.117066 0.576119 0.263550
Si Si5 0.650188 0.341711 0.511102
O O1 0.553487 0.699529 0.671689
O O2 0.623934 0.586700 0.625213
O O3 0.478533 0.603351 0.771446
O O4 0.636368 0.631260 0.849000
O O5 0.072986 0.710220 0.490728
O O6 0.705735 0.500000 0.750000
O O7 0.799010 0.405655 0.823841
O O8 0.750000 0.479058 0.000000
O O9 0.111208 0.500000 0.250000
O O10 0.135917 0.604246 0.403720
O O11 0.750000 0.316054 0.500000
#
# Coordination Sequence:
#
# PCOD9532738 Si02
#       5
#    16   8  16  16  16
#     4  11  24  45  67  99 136 185 226 288 342 408
#     4  10  26  44  66 100 136 182 238 282 342 404
#     4  11  26  44  70 103 142 179 226 279 345 418
#     4  10  24  41  66 101 136 176 226 280 345 414
#     4  11  23  45  69  99 137 178 232 289 342 403
#
# _framework density 21.609504000000001
#
# number of rings (size 3 to 8) (size 9 to 14) (size 15 to 20)
#    0.000    1.333    2.222    1.333   12.444    2.667 
#    0.000    0.000    0.000    0.000    0.000    0.000 
#    0.000    0.000    0.000    0.000    0.000    0.000 
#
# Total GULP energy -201052.051574 kJ/mol
# GULP energy per Si atom -5584.779210 kJ/mol
# Density = 2.156032 g / cm^3
# Si number density = 21.609504 Si / 1000 Ang^3
#
#
#
# Elastic Constant Matrix: (Units=GPa)
#
#
# Indices 1 2 3 4 5 6 
#
# 1 129.1343 26.5450 20.6798 0.0000 0.0000 0.0000
# 2 26.5450 86.9249 20.0708 0.0000 0.0000 0.0000
# 3 20.6798 20.0708 77.4626 0.0000 0.0000 0.0000
# 4 0.0000 0.0000 0.0000 14.7041 0.0000 0.0000
# 5 0.0000 0.0000 0.0000 0.0000 34.1657 0.0000
# 6 0.0000 0.0000 0.0000 0.0000 0.0000 118.7483
#
#
#
# Elastic Compliance Matrix: (Units=1/GPa)
#
#
# Indices 1 2 3 4 5 6 
#
# 1 0.008466 -0.002195 -0.001691 0.000000 0.000000 0.000000
# 2 -0.002195 0.012805 -0.002732 0.000000 0.000000 0.000000
# 3 -0.001691 -0.002732 0.014069 0.000000 0.000000 0.000000
# 4 0.000000 0.000000 0.000000 0.068008 0.000000 0.000000
# 5 0.000000 0.000000 0.000000 0.000000 0.029269 0.000000
# 6 0.000000 0.000000 0.000000 0.000000 0.000000 0.008421
#
#
# Mechanical properties :
#
#
# Convention : Reuss Voigt Hill
#
# Bulk Modulus (GPa) = 45.24126 47.56811 46.40469
# Shear Modulus (GPa) = 30.93240 48.60536 39.76888
#
# Velocity S-wave (km/s) = 3.78752 4.74778 4.29457
# Velocity P-wave (km/s) = 6.33312 7.21911 6.79058
#
# Compressibility (1/GPa) = 0.02210371
#
# Stress axis : x y z
#
# Youngs Moduli (GPa) = 118.12092 78.09320 71.07892
#
# Poissons Ratio (x) = 0.17140 0.12023
# Poissons Ratio (y) = 0.25925 0.19418
# Poissons Ratio (z) = 0.19979 0.21335
#
# Static dielectric constant tensor:
#      x y z
#    x 1.815100 0.000000 0.000000 
#    y 0.000000 1.785470 0.000000 
#    z 0.000000 0.000000 1.807120 
# 
# From -- ./inp_files/10633.got.cif
#   From: 2010.05.17/outbox.cif.g08.bks.cpg/sg73_6_cif.got.tgz:10633.got - 2010.06.03 17:35:07.
