data_PCOD9532184
_publ_section_title
;
Structure prediction by ZEFSAII (Michael W. Deem and Ramdas Pophale) SiO2 
 PCOD9532184
Probable space group: I B C A 
;
_chemical_formula_sum "Si O2"
_cell_formula_units_Z 112
_cell_length_a 11.612167
_cell_length_b 28.327486
_cell_length_c 14.601575
_cell_angle_alpha 90.000000
_cell_angle_beta 90.000000
_cell_angle_gamma 90.000000
_cell_volume 4803.093159
_symmetry_space_group_name_H-M "I B C A "
_symmetry_group_IT_number 73
_symmetry_cell_setting 'orthorhombic'
loop_
_space_group_symop_operation_xyz
x,y,z
-x,1/2-y,z
x,-y,1/2-z
1/2-x,y,-z
-x,-y,-z
x,1/2+y,-z
-x,y,1/2+z
1/2+x,-y,z
1/2+x,1/2+y,1/2+z
1/2-x,-y,1/2+z
1/2+x,1/2-y,-z
-x,1/2+y,1/2-z
1/2-x,1/2-y,1/2-z
1/2+x,y,1/2-z
1/2-x,1/2+y,z
x,1/2-y,1/2+z
loop_
_atom_site_type_symbol
_atom_site_label
_atom_site_fract_x
_atom_site_fract_y
_atom_site_fract_z
Si Si1 0.373691 0.613046 0.869339
Si Si2 0.532755 0.696533 0.942499
Si Si3 0.377141 0.985323 0.455018
Si Si4 0.538446 0.800659 0.662548
Si Si5 0.750063 0.355566 0.365613
Si Si6 0.370051 0.884101 0.694735
Si Si7 0.913699 0.068753 0.165856
O O1 0.447079 0.658331 0.897668
O O2 0.391338 0.569929 0.937228
O O3 0.239238 0.625374 0.867597
O O4 0.395905 0.589056 0.768869
O O5 0.500000 0.750000 0.912336
O O6 0.660231 0.676043 0.920930
O O7 0.526521 0.697750 0.052523
O O8 0.250000 0.993303 0.500000
O O9 0.500000 0.000000 0.500000
O O10 0.374312 0.017149 0.362125
O O11 0.500000 0.750000 0.695798
O O12 0.667411 0.817597 0.685521
O O13 0.449577 0.838539 0.698723
O O14 0.824678 0.388680 0.298078
O O15 0.654904 0.393775 0.400183
O O16 0.448598 0.925897 0.657085
#
# Coordination Sequence:
#
# PCOD9532184 Si02
#       7
#    16  16  16  16  16  16  16
#     4  11  25  45  70 100 142 190 230 298 357 433
#     4  11  25  43  68 103 140 188 242 295 366 427
#     4  12  29  45  74 113 142 189 239 301 366 437
#     4  10  24  40  64  97 138 189 232 298 356 419
#     4  10  22  42  69  96 135 182 241 289 354 431
#     4  10  22  43  66  99 133 181 234 293 357 421
#     4  10  23  47  70  99 140 184 233 291 364 431
#
# _framework density 23.318307000000001
#
# number of rings (size 3 to 8) (size 9 to 14) (size 15 to 20)
#    0.000    1.429    1.429    1.714   10.000    1.143 
#    0.000    2.857    0.000    0.000    0.000    0.000 
#    0.000    0.000    0.000    0.000    0.000    0.000 
#
# Total GULP energy -312521.940338 kJ/mol
# GULP energy per Si atom -5580.748935 kJ/mol
# Density = 2.326523 g / cm^3
# Si number density = 23.318307 Si / 1000 Ang^3
#
#
#
# Elastic Constant Matrix: (Units=GPa)
#
#
# Indices 1 2 3 4 5 6 
#
# 1 156.5921 39.1318 31.7059 0.0000 0.0000 0.0000
# 2 39.1318 127.1749 26.4751 0.0001 0.0000 0.0000
# 3 31.7059 26.4751 76.9596 0.0004 -0.0001 -0.0001
# 4 0.0000 0.0001 0.0004 31.6226 -0.0001 0.0000
# 5 0.0000 0.0000 -0.0001 -0.0001 30.5020 0.0000
# 6 0.0000 0.0000 -0.0001 0.0000 0.0000 20.9485
#
#
#
# Elastic Compliance Matrix: (Units=1/GPa)
#
#
# Indices 1 2 3 4 5 6 
#
# 1 0.007311 -0.001748 -0.002411 0.000000 0.000000 0.000000
# 2 -0.001748 0.008888 -0.002337 0.000000 0.000000 0.000000
# 3 -0.002411 -0.002337 0.014791 0.000000 0.000000 0.000000
# 4 0.000000 0.000000 0.000000 0.031623 0.000000 0.000000
# 5 0.000000 0.000000 0.000000 0.000000 0.032785 0.000000
# 6 0.000000 0.000000 0.000000 0.000000 0.000000 0.047736
#
#
# Mechanical properties :
#
#
# Convention : Reuss Voigt Hill
#
# Bulk Modulus (GPa) = 55.56213 61.70581 58.63397
# Shear Modulus (GPa) = 30.84052 34.17552 32.50802
#
# Velocity S-wave (km/s) = 3.64069 3.83248 3.73781
# Velocity P-wave (km/s) = 6.44610 6.78997 6.62027
#
# Compressibility (1/GPa) = 0.01799787
#
# Stress axis : x y z
#
# Youngs Moduli (GPa) = 136.78260 112.51690 67.60825
#
# Poissons Ratio (x) = 0.19665 0.16298
# Poissons Ratio (y) = 0.23906 0.15803
# Poissons Ratio (z) = 0.32974 0.26300
#
# Static dielectric constant tensor:
#      x y z
#    x 1.966180 0.000000 0.000000 
#    y 0.000000 1.858880 0.000000 
#    z 0.000000 0.000000 1.994180 
# 
# From -- ./inp_files/16341.got.cif
#   From: 2010.05.17/outbox.cif.g08.bks.cpg/sg73_9_cif.got.tgz:16341.got - 2010.06.03 17:35:07.
