data_PCOD9532667
_publ_section_title
;
Structure prediction by ZEFSAII (Michael W. Deem and Ramdas Pophale) SiO2 
 PCOD9532667
Probable space group: I B C A 
;
_chemical_formula_sum "Si O2"
_cell_formula_units_Z 112
_cell_length_a 14.579098
_cell_length_b 27.021169
_cell_length_c 13.304212
_cell_angle_alpha 90.000000
_cell_angle_beta 90.000000
_cell_angle_gamma 90.000000
_cell_volume 5241.118097
_symmetry_space_group_name_H-M "I B C A "
_symmetry_group_IT_number 73
_symmetry_cell_setting 'orthorhombic'
loop_
_space_group_symop_operation_xyz
x,y,z
-x,1/2-y,z
x,-y,1/2-z
1/2-x,y,-z
-x,-y,-z
x,1/2+y,-z
-x,y,1/2+z
1/2+x,-y,z
1/2+x,1/2+y,1/2+z
1/2-x,-y,1/2+z
1/2+x,1/2-y,-z
-x,1/2+y,1/2-z
1/2-x,1/2-y,1/2-z
1/2+x,y,1/2-z
1/2-x,1/2+y,z
x,1/2-y,1/2+z
loop_
_atom_site_type_symbol
_atom_site_label
_atom_site_fract_x
_atom_site_fract_y
_atom_site_fract_z
Si Si1 0.240334 0.016506 0.611704
Si Si2 0.790417 0.920770 0.804020
Si Si3 0.111318 0.251901 0.465442
Si Si4 0.531931 0.997054 0.612218
Si Si5 0.857288 0.344681 0.818689
Si Si6 0.227387 0.781960 0.847818
Si Si7 0.983256 0.913351 0.747199
O O1 0.250000 0.037022 0.500000
O O2 0.253907 0.056023 0.699308
O O3 0.139855 0.992585 0.623605
O O4 0.307460 0.969675 0.628764
O O5 0.718525 0.884058 0.852544
O O6 0.884405 0.893874 0.777773
O O7 0.133360 0.301519 0.401218
O O8 0.158143 0.246275 0.575485
O O9 0.174555 0.211331 0.404553
O O10 0.000000 0.250000 0.469323
O O11 0.522542 0.941712 0.655545
O O12 0.500000 0.000000 0.500000
O O13 0.477845 0.039716 0.671938
O O14 0.823493 0.327203 0.707202
O O15 0.952428 0.372573 0.800616
O O16 0.250000 0.750000 0.750000
#
# Coordination Sequence:
#
# PCOD9532667 Si02
#       7
#    16  16  16  16  16  16  16
#     4  11  20  39  60  89 139 186 216 271 340 391
#     4  11  22  41  63  95 135 175 221 278 331 390
#     4  10  23  47  73  99 130 176 218 271 359 426
#     4  11  20  39  60  89 139 182 222 266 335 400
#     4  11  23  45  69 100 131 169 233 290 330 411
#     4   9  22  47  68  95 136 170 206 275 356 413
#     4  11  22  41  63  97 132 176 225 276 326 398
#
# _framework density 21.369485999999998
#
# number of rings (size 3 to 8) (size 9 to 14) (size 15 to 20)
#    0.000    1.429    2.857    4.286    2.000    2.286 
#   15.429    0.000    0.000    0.000    0.000    0.000 
#    0.000    0.000    0.000    0.000    0.000    0.000 
#
# Total GULP energy -312341.646179 kJ/mol
# GULP energy per Si atom -5577.529396 kJ/mol
# Density = 2.132085 g / cm^3
# Si number density = 21.369486 Si / 1000 Ang^3
#
#
#
# Elastic Constant Matrix: (Units=GPa)
#
#
# Indices 1 2 3 4 5 6 
#
# 1 116.9878 12.0718 -0.4134 0.0000 0.0000 0.0000
# 2 12.0718 65.8016 12.5248 0.0001 0.0000 0.0000
# 3 -0.4134 12.5248 105.1914 0.0002 0.0000 0.0000
# 4 0.0000 0.0001 0.0002 17.4883 0.0000 0.0000
# 5 0.0000 0.0000 0.0000 0.0000 26.9278 0.0000
# 6 0.0000 0.0000 0.0000 0.0000 0.0000 9.4885
#
#
#
# Elastic Compliance Matrix: (Units=1/GPa)
#
#
# Indices 1 2 3 4 5 6 
#
# 1 0.008718 -0.001643 0.000230 0.000000 0.000000 0.000000
# 2 -0.001643 0.015859 -0.001895 0.000000 0.000000 0.000000
# 3 0.000230 -0.001895 0.009733 0.000000 0.000000 0.000000
# 4 0.000000 0.000000 0.000000 0.057181 0.000000 0.000000
# 5 0.000000 0.000000 0.000000 0.000000 0.037136 0.000000
# 6 0.000000 0.000000 0.000000 0.000000 0.000000 0.105391
#
#
# Mechanical properties :
#
#
# Convention : Reuss Voigt Hill
#
# Bulk Modulus (GPa) = 36.10829 37.37190 36.74010
# Shear Modulus (GPa) = 20.01070 28.36742 24.18906
#
# Velocity S-wave (km/s) = 3.06341 3.64740 3.36809
# Velocity P-wave (km/s) = 5.42646 5.93839 5.68819
#
# Compressibility (1/GPa) = 0.02769447
#
# Stress axis : x y z
#
# Youngs Moduli (GPa) = 114.70168 63.05443 102.74337
#
# Poissons Ratio (x) = 0.10361 -0.02362
# Poissons Ratio (y) = 0.18848 0.19468
# Poissons Ratio (z) = -0.02637 0.11947
#
# Static dielectric constant tensor:
#      x y z
#    x 1.844380 0.000000 0.000000 
#    y 0.000000 1.785800 0.000000 
#    z 0.000000 0.000000 1.756820 
# 
# From -- ./inp_files/17399.got.cif
#   From: 2010.05.17/outbox.cif.g08.bks.cpg/sg73_9_cif.got.tgz:17399.got - 2010.06.03 17:35:07.
