data_PCOD9532350
_publ_section_title
;
Structure prediction by ZEFSAII (Michael W. Deem and Ramdas Pophale) SiO2 
 PCOD9532350
Probable space group: I B C A 
;
_chemical_formula_sum "Si O2"
_cell_formula_units_Z 88
_cell_length_a 10.797857
_cell_length_b 14.996171
_cell_length_c 24.817929
_cell_angle_alpha 90.000000
_cell_angle_beta 90.000000
_cell_angle_gamma 90.000000
_cell_volume 4018.680629
_symmetry_space_group_name_H-M "I B C A "
_symmetry_group_IT_number 73
_symmetry_cell_setting 'orthorhombic'
loop_
_space_group_symop_operation_xyz
x,y,z
-x,1/2-y,z
x,-y,1/2-z
1/2-x,y,-z
-x,-y,-z
x,1/2+y,-z
-x,y,1/2+z
1/2+x,-y,z
1/2+x,1/2+y,1/2+z
1/2-x,-y,1/2+z
1/2+x,1/2-y,-z
-x,1/2+y,1/2-z
1/2-x,1/2-y,1/2-z
1/2+x,y,1/2-z
1/2-x,1/2+y,z
x,1/2-y,1/2+z
loop_
_atom_site_type_symbol
_atom_site_label
_atom_site_fract_x
_atom_site_fract_y
_atom_site_fract_z
Si Si1 0.299136 0.549350 0.353850
Si Si2 0.783430 0.645905 0.384444
Si Si3 0.143575 0.000000 0.750000
Si Si4 0.851715 0.402950 0.538708
Si Si5 0.750000 0.927754 0.000000
Si Si6 0.000000 0.250000 0.084417
Si Si7 0.469081 0.152857 0.181803
O O1 0.341705 0.447530 0.364471
O O2 0.226763 0.542816 0.297385
O O3 0.208777 0.574250 0.403217
O O4 0.414286 0.615746 0.351578
O O5 0.758025 0.630863 0.447325
O O6 0.881900 0.724292 0.379890
O O7 0.655144 0.659965 0.353825
O O8 0.060292 0.922014 0.725580
O O9 0.750000 0.356169 0.500000
O O10 0.861026 0.499836 0.509776
O O11 0.963539 0.336124 0.548907
O O12 0.500000 0.250000 0.204153
#
# Coordination Sequence:
#
# PCOD9532350 Si02
#       7
#    16  16   8  16   8   8  16
#     4  10  22  45  70  98 139 178 242 281 354 430
#     4  10  24  40  67  98 136 187 228 285 356 411
#     4  10  24  44  74 106 136 186 230 292 366 408
#     4   9  22  42  62  99 132 186 231 287 350 411
#     4   8  20  42  58  88 134 184 232 270 348 420
#     4  12  24  38  62 100 140 176 234 296 338 420
#     4  11  24  46  73 107 138 184 233 297 349 425
#
# _framework density 21.897734
#
# number of rings (size 3 to 8) (size 9 to 14) (size 15 to 20)
#    0.545    1.455    0.000    1.636    8.909    2.909 
#    4.909    0.000    0.000    0.000    0.000    0.000 
#    0.000    0.000    0.000    0.000    0.000    0.000 
#
# Total GULP energy -245693.306888 kJ/mol
# GULP energy per Si atom -5583.938793 kJ/mol
# Density = 2.184789 g / cm^3
# Si number density = 21.897734 Si / 1000 Ang^3
#
#
#
# Elastic Constant Matrix: (Units=GPa)
#
#
# Indices 1 2 3 4 5 6 
#
# 1 65.3191 48.0415 19.6881 0.0000 0.0000 0.0000
# 2 48.0415 116.4407 25.9367 0.0000 0.0000 0.0000
# 3 19.6881 25.9367 99.3910 0.0000 0.0000 0.0000
# 4 0.0000 0.0000 0.0000 11.8517 0.0000 0.0000
# 5 0.0000 0.0000 0.0000 0.0000 3.3954 0.0000
# 6 0.0000 0.0000 0.0000 0.0000 0.0000 47.7927
#
#
#
# Elastic Compliance Matrix: (Units=1/GPa)
#
#
# Indices 1 2 3 4 5 6 
#
# 1 0.022404 -0.008764 -0.002151 0.000000 0.000000 0.000000
# 2 -0.008764 0.012547 -0.001538 0.000000 0.000000 0.000000
# 3 -0.002151 -0.001538 0.010889 0.000000 0.000000 0.000000
# 4 0.000000 0.000000 0.000000 0.084376 0.000000 0.000000
# 5 0.000000 0.000000 0.000000 0.000000 0.294518 0.000000
# 6 0.000000 0.000000 0.000000 0.000000 0.000000 0.020924
#
#
# Mechanical properties :
#
#
# Convention : Reuss Voigt Hill
#
# Bulk Modulus (GPa) = 47.77192 52.05373 49.91283
# Shear Modulus (GPa) = 10.47030 25.10692 17.78861
#
# Velocity S-wave (km/s) = 2.18903 3.38975 2.85327
# Velocity P-wave (km/s) = 5.31530 6.25647 5.80499
#
# Compressibility (1/GPa) = 0.02093280
#
# Stress axis : x y z
#
# Youngs Moduli (GPa) = 44.63524 79.70239 91.83854
#
# Poissons Ratio (x) = 0.69854 0.19753
# Poissons Ratio (y) = 0.39120 0.14125
# Poissons Ratio (z) = 0.09600 0.12258
#
# Static dielectric constant tensor:
#      x y z
#    x 1.850070 0.000000 0.000000 
#    y 0.000000 1.825820 0.000000 
#    z 0.000000 0.000000 1.787700 
# 
# From -- ./inp_files/31721.got.cif
#   From: 2010.05.17/outbox.cif.g08.bks.cpg/sg73_16_cif.got.tgz:31721.got - 2010.06.03 17:35:07.
