data_PCOD9532823
_publ_section_title
;
Structure prediction by ZEFSAII (Michael W. Deem and Ramdas Pophale) SiO2 
 PCOD9532823
Probable space group: I B C A 
;
_chemical_formula_sum "Si O2"
_cell_formula_units_Z 96
_cell_length_a 21.990280
_cell_length_b 15.837113
_cell_length_c 13.560446
_cell_angle_alpha 90.000000
_cell_angle_beta 90.000000
_cell_angle_gamma 90.000000
_cell_volume 4722.595493
_symmetry_space_group_name_H-M "I B C A "
_symmetry_group_IT_number 73
_symmetry_cell_setting 'orthorhombic'
loop_
_space_group_symop_operation_xyz
x,y,z
-x,1/2-y,z
x,-y,1/2-z
1/2-x,y,-z
-x,-y,-z
x,1/2+y,-z
-x,y,1/2+z
1/2+x,-y,z
1/2+x,1/2+y,1/2+z
1/2-x,-y,1/2+z
1/2+x,1/2-y,-z
-x,1/2+y,1/2-z
1/2-x,1/2-y,1/2-z
1/2+x,y,1/2-z
1/2-x,1/2+y,z
x,1/2-y,1/2+z
loop_
_atom_site_type_symbol
_atom_site_label
_atom_site_fract_x
_atom_site_fract_y
_atom_site_fract_z
Si Si1 0.816631 0.208827 0.262055
Si Si2 0.559759 0.809400 0.278244
Si Si3 0.683839 0.890427 0.958248
Si Si4 0.362869 0.048039 0.347761
Si Si5 0.932462 0.838378 0.934708
Si Si6 0.556584 0.357367 0.505012
O O1 0.750000 0.250000 0.250000
O O2 0.877320 0.263799 0.245610
O O3 0.824971 0.179176 0.374213
O O4 0.824174 0.127045 0.192566
O O5 0.500000 0.750000 0.296872
O O6 0.545436 0.856648 0.176382
O O7 0.574371 0.856768 0.380039
O O8 0.677458 0.979611 0.904134
O O9 0.750000 0.880082 0.000000
O O10 0.632099 0.877257 0.039406
O O11 0.409743 0.081988 0.428857
O O12 0.388716 0.000000 0.250000
O O13 0.932999 0.737979 0.961488
O O14 0.984795 0.875590 0.003979
#
# Coordination Sequence:
#
# PCOD9532823 Si02
#       6
#    16  16  16  16  16  16
#     4  11  22  38  67  96 121 169 224 266 318 388
#     4  12  20  36  64 100 129 155 217 277 312 374
#     4  11  24  42  59  90 133 173 210 268 330 392
#     4  10  24  44  63  90 134 175 210 262 340 396
#     4  11  21  39  66  98 128 163 220 270 320 383
#     4  11  21  39  68  98 124 170 217 271 324 384
#
# _framework density 20.327805000000001
#
# number of rings (size 3 to 8) (size 9 to 14) (size 15 to 20)
#    0.000    1.000    6.667    1.000    0.000    3.333 
#    0.000    2.500    0.000    0.000    0.000    0.000 
#    0.000    0.000    0.000    0.000    0.000    0.000 
#
# Total GULP energy -267790.116895 kJ/mol
# GULP energy per Si atom -5578.960769 kJ/mol
# Density = 2.028154 g / cm^3
# Si number density = 20.327805 Si / 1000 Ang^3
#
#
#
# Elastic Constant Matrix: (Units=GPa)
#
#
# Indices 1 2 3 4 5 6 
#
# 1 98.1959 12.1447 1.6649 0.0000 0.0000 0.0000
# 2 12.1447 29.8974 6.2979 0.0000 0.0000 0.0000
# 3 1.6649 6.2979 113.6461 0.0000 0.0000 0.0000
# 4 0.0000 0.0000 0.0000 -2.7110 0.0000 0.0000
# 5 0.0000 0.0000 0.0000 0.0000 32.2155 0.0000
# 6 0.0000 0.0000 0.0000 0.0000 0.0000 16.2452
#
#
#
# Elastic Compliance Matrix: (Units=1/GPa)
#
#
# Indices 1 2 3 4 5 6 
#
# 1 0.010723 -0.004374 0.000085 0.000000 0.000000 0.000000
# 2 -0.004374 0.035627 -0.001910 0.000000 0.000000 0.000000
# 3 0.000085 -0.001910 0.008904 0.000000 0.000000 0.000000
# 4 0.000000 0.000000 0.000000 -0.368869 0.000000 0.000000
# 5 0.000000 0.000000 0.000000 0.000000 0.031041 0.000000
# 6 0.000000 0.000000 0.000000 0.000000 0.000000 0.061557
#
#
# Mechanical properties :
#
#
# Convention : Reuss Voigt Hill
#
# Bulk Modulus (GPa) = 23.33382 31.32828 27.33105
# Shear Modulus (GPa) = -25.72886 23.92539 -0.90173
#
# Velocity S-wave (km/s) = -3.56152 3.43443 -0.66675
# Velocity P-wave (km/s) = 2.32571 5.58320 3.58909
#
# Compressibility (1/GPa) = 0.04285624
#
# Stress axis : x y z
#
# Youngs Moduli (GPa) = 93.25541 28.06872 112.31088
#
# Poissons Ratio (x) = 0.12277 -0.00958
# Poissons Ratio (y) = 0.40789 0.21454
# Poissons Ratio (z) = -0.00795 0.05362
#
# Static dielectric constant tensor:
#      x y z
#    x 1.797630 0.000000 0.000000 
#    y 0.000000 1.754870 0.000000 
#    z 0.000000 0.000000 1.767860 
# 
# From -- ./inp_files/18664.got.cif
#   From: 2010.05.17/outbox.cif.g08.bks.cpg/sg73_10_cif.got.tgz:18664.got - 2010.06.03 17:35:07.
