data_PCOD9532425
_publ_section_title
;
Structure prediction by ZEFSAII (Michael W. Deem and Ramdas Pophale) SiO2 
 PCOD9532425
Probable space group: I B C A 
;
_chemical_formula_sum "Si O2"
_cell_formula_units_Z 56
_cell_length_a 19.916262
_cell_length_b 22.635579
_cell_length_c 5.277305
_cell_angle_alpha 90.000000
_cell_angle_beta 90.000000
_cell_angle_gamma 90.000000
_cell_volume 2379.094174
_symmetry_space_group_name_H-M "I B C A "
_symmetry_group_IT_number 73
_symmetry_cell_setting 'orthorhombic'
loop_
_space_group_symop_operation_xyz
x,y,z
-x,1/2-y,z
x,-y,1/2-z
1/2-x,y,-z
-x,-y,-z
x,1/2+y,-z
-x,y,1/2+z
1/2+x,-y,z
1/2+x,1/2+y,1/2+z
1/2-x,-y,1/2+z
1/2+x,1/2-y,-z
-x,1/2+y,1/2-z
1/2-x,1/2-y,1/2-z
1/2+x,y,1/2-z
1/2-x,1/2+y,z
x,1/2-y,1/2+z
loop_
_atom_site_type_symbol
_atom_site_label
_atom_site_fract_x
_atom_site_fract_y
_atom_site_fract_z
Si Si1 0.580887 0.210903 0.124235
Si Si2 0.250000 0.460222 0.500000
Si Si3 0.678945 0.610840 0.859915
Si Si4 0.963786 0.081425 0.918671
O O1 0.574031 0.249438 0.375777
O O2 0.652599 0.177454 0.138205
O O3 0.533137 0.153463 0.104174
O O4 0.239596 0.500000 0.250000
O O5 0.309759 0.416338 0.419057
O O6 0.615846 0.572983 0.967468
O O7 0.750000 0.608235 0.000000
O O8 0.989875 0.060650 0.646872
#
# Coordination Sequence:
#
# PCOD9532425 Si02
#       4
#    16   8  16  16
#     4  10  23  38  62  97 139 187 219 265 311 389
#     4  12  26  46  76  98 120 166 226 290 344 408
#     4  10  26  43  70  99 139 166 232 274 331 395
#     4  10  23  40  64  95 139 185 221 268 315 383
#
# _framework density 23.538368999999999
#
# number of rings (size 3 to 8) (size 9 to 14) (size 15 to 20)
#    1.714    0.000    1.429    1.714    8.000    4.571 
#    0.000    0.000    0.000    5.143    0.000    0.000 
#    0.000    0.000    0.000    0.000    0.000    0.000 
#
# Total GULP energy -156155.032362 kJ/mol
# GULP energy per Si atom -5576.965441 kJ/mol
# Density = 2.348479 g / cm^3
# Si number density = 23.538369 Si / 1000 Ang^3
#
#
#
# Elastic Constant Matrix: (Units=GPa)
#
#
# Indices 1 2 3 4 5 6 
#
# 1 149.5754 13.3478 54.2625 0.0000 0.0000 0.0000
# 2 13.3478 91.9598 46.1714 0.0000 0.0000 0.0000
# 3 54.2625 46.1714 181.7463 0.0000 0.0000 0.0000
# 4 0.0000 0.0000 0.0000 -4.5450 0.0000 0.0000
# 5 0.0000 0.0000 0.0000 0.0000 17.8197 0.0000
# 6 0.0000 0.0000 0.0000 0.0000 0.0000 -11.6977
#
#
#
# Elastic Compliance Matrix: (Units=1/GPa)
#
#
# Indices 1 2 3 4 5 6 
#
# 1 0.007498 0.000041 -0.002249 0.000000 0.000000 0.000000
# 2 0.000041 0.012464 -0.003179 0.000000 0.000000 0.000000
# 3 -0.002249 -0.003179 0.006981 0.000000 0.000000 0.000000
# 4 0.000000 0.000000 0.000000 -0.220023 0.000000 0.000000
# 5 0.000000 0.000000 0.000000 0.000000 0.056118 0.000000
# 6 0.000000 0.000000 0.000000 0.000000 0.000000 -0.085487
#
#
# Mechanical properties :
#
#
# Convention : Reuss Voigt Hill
#
# Bulk Modulus (GPa) = 61.84378 72.31610 67.07994
# Shear Modulus (GPa) = -24.23827 20.94872 -1.64477
#
# Velocity S-wave (km/s) = -3.21243 2.98649 -0.83683
# Velocity P-wave (km/s) = 3.54557 6.53311 5.25607
#
# Compressibility (1/GPa) = 0.01616977
#
# Stress axis : x y z
#
# Youngs Moduli (GPa) = 133.37237 80.22884 143.24298
#
# Poissons Ratio (x) = -0.00328 0.32214
# Poissons Ratio (y) = -0.00545 0.45532
# Poissons Ratio (z) = 0.29995 0.25502
#
# Static dielectric constant tensor:
#      x y z
#    x 1.899940 0.000000 0.000000 
#    y 0.000000 1.924270 0.000000 
#    z 0.000000 0.000000 1.886860 
# 
# From -- ./inp_files/1050.got.cif
#   From: 2010.05.17/outbox.cif.g08.bks.cpg/sg73_1_cif.got.tgz:1050.got - 2010.06.03 17:35:07.
