data_PCOD9532961
_publ_section_title
;
Structure prediction by ZEFSAII (Michael W. Deem and Ramdas Pophale) SiO2 
 PCOD9532961
Probable space group: I B C A 
;
_chemical_formula_sum "Si O2"
_cell_formula_units_Z 72
_cell_length_a 17.108579
_cell_length_b 8.209037
_cell_length_c 22.030679
_cell_angle_alpha 90.000000
_cell_angle_beta 90.000000
_cell_angle_gamma 90.000000
_cell_volume 3094.097787
_symmetry_space_group_name_H-M "I B C A "
_symmetry_group_IT_number 73
_symmetry_cell_setting 'orthorhombic'
loop_
_space_group_symop_operation_xyz
x,y,z
-x,1/2-y,z
x,-y,1/2-z
1/2-x,y,-z
-x,-y,-z
x,1/2+y,-z
-x,y,1/2+z
1/2+x,-y,z
1/2+x,1/2+y,1/2+z
1/2-x,-y,1/2+z
1/2+x,1/2-y,-z
-x,1/2+y,1/2-z
1/2-x,1/2-y,1/2-z
1/2+x,y,1/2-z
1/2-x,1/2+y,z
x,1/2-y,1/2+z
loop_
_atom_site_type_symbol
_atom_site_label
_atom_site_fract_x
_atom_site_fract_y
_atom_site_fract_z
Si Si1 0.859900 0.819948 0.943089
Si Si2 0.935386 0.538528 0.139577
Si Si3 0.750000 0.917548 0.500000
Si Si4 0.500000 0.750000 0.965665
Si Si5 0.336569 0.808287 0.769081
Si Si6 0.055299 0.000000 0.750000
O O1 0.793909 0.684119 0.948119
O O2 0.895573 0.868173 0.878767
O O3 0.815311 0.977250 0.967743
O O4 0.927045 0.779112 0.990870
O O5 0.869024 0.667300 0.161667
O O6 0.978993 0.602841 0.079600
O O7 0.999088 0.520904 0.192060
O O8 0.156410 0.500000 0.750000
O O9 0.250000 0.750000 0.750000
O O10 0.392876 0.663860 0.744951
#
# Coordination Sequence:
#
# PCOD9532961 Si02
#       6
#    16  16   8   8  16   8
#     4  11  25  48  75 111 152 203 257 322 397 474
#     4  12  26  49  80 114 157 202 274 332 395 498
#     4  10  24  48  70 110 156 200 252 310 404 468
#     4  12  24  50  78 116 150 204 268 328 398 484
#     4  12  27  51  77 113 156 209 263 325 411 476
#     4  12  26  54  78 114 158 206 274 330 398 484
#
# _framework density 23.270112000000001
#
# number of rings (size 3 to 8) (size 9 to 14) (size 15 to 20)
#    0.000    0.444    6.667    0.667    0.000    3.556 
#    8.000    0.000    0.000    0.000    0.000    0.000 
#    0.000    0.000    0.000    0.000    0.000    0.000 
#
# Total GULP energy -201232.216994 kJ/mol
# GULP energy per Si atom -5589.783805 kJ/mol
# Density = 2.321715 g / cm^3
# Si number density = 23.270112 Si / 1000 Ang^3
#
#
#
# Elastic Constant Matrix: (Units=GPa)
#
#
# Indices 1 2 3 4 5 6 
#
# 1 191.3912 74.5289 71.2868 0.0000 0.0000 0.0000
# 2 74.5289 136.3410 44.0369 0.0000 0.0000 0.0000
# 3 71.2868 44.0369 101.1757 0.0000 0.0000 0.0000
# 4 0.0000 0.0000 0.0000 35.2705 0.0000 0.0000
# 5 0.0000 0.0000 0.0000 0.0000 17.8759 0.0000
# 6 0.0000 0.0000 0.0000 0.0000 0.0000 47.3628
#
#
#
# Elastic Compliance Matrix: (Units=1/GPa)
#
#
# Indices 1 2 3 4 5 6 
#
# 1 0.007999 -0.002970 -0.004343 0.000000 0.000000 0.000000
# 2 -0.002970 0.009637 -0.002102 0.000000 0.000000 0.000000
# 3 -0.004343 -0.002102 0.013859 0.000000 0.000000 0.000000
# 4 0.000000 0.000000 0.000000 0.028352 0.000000 0.000000
# 5 0.000000 0.000000 0.000000 0.000000 0.055941 0.000000
# 6 0.000000 0.000000 0.000000 0.000000 0.000000 0.021114
#
#
# Mechanical properties :
#
#
# Convention : Reuss Voigt Hill
#
# Bulk Modulus (GPa) = 78.96053 89.84592 84.40322
# Shear Modulus (GPa) = 31.25894 36.03885 33.64890
#
# Velocity S-wave (km/s) = 3.66909 3.93965 3.80677
# Velocity P-wave (km/s) = 7.20802 7.70638 7.46136
#
# Compressibility (1/GPa) = 0.01266456
#
# Stress axis : x y z
#
# Youngs Moduli (GPa) = 125.01363 103.76848 72.15495
#
# Poissons Ratio (x) = 0.30816 0.31340
# Poissons Ratio (y) = 0.37125 0.15167
# Poissons Ratio (z) = 0.54300 0.21813
#
# Static dielectric constant tensor:
#      x y z
#    x 1.813460 0.000000 0.000000 
#    y 0.000000 1.927010 0.000000 
#    z 0.000000 0.000000 1.938110 
# 
# From -- ./inp_files/22980.got.cif
#   From: 2010.05.17/outbox.cif.g08.bks.cpg/sg73_12_cif.got.tgz:22980.got - 2010.06.03 17:35:07.
