data_PCOD9532965
_publ_section_title
;
Structure prediction by ZEFSAII (Michael W. Deem and Ramdas Pophale) SiO2 
 PCOD9532965
Probable space group: I B C A 
;
_chemical_formula_sum "Si O2"
_cell_formula_units_Z 80
_cell_length_a 14.502721
_cell_length_b 22.832480
_cell_length_c 10.965911
_cell_angle_alpha 90.000000
_cell_angle_beta 90.000000
_cell_angle_gamma 90.000000
_cell_volume 3631.175963
_symmetry_space_group_name_H-M "I B C A "
_symmetry_group_IT_number 73
_symmetry_cell_setting 'orthorhombic'
loop_
_space_group_symop_operation_xyz
x,y,z
-x,1/2-y,z
x,-y,1/2-z
1/2-x,y,-z
-x,-y,-z
x,1/2+y,-z
-x,y,1/2+z
1/2+x,-y,z
1/2+x,1/2+y,1/2+z
1/2-x,-y,1/2+z
1/2+x,1/2-y,-z
-x,1/2+y,1/2-z
1/2-x,1/2-y,1/2-z
1/2+x,y,1/2-z
1/2-x,1/2+y,z
x,1/2-y,1/2+z
loop_
_atom_site_type_symbol
_atom_site_label
_atom_site_fract_x
_atom_site_fract_y
_atom_site_fract_z
Si Si1 0.690273 0.634558 0.612594
Si Si2 0.954597 0.431520 0.269976
Si Si3 0.897125 0.234934 0.457617
Si Si4 0.625886 0.641829 0.249393
Si Si5 0.148923 0.639477 0.526386
O O1 0.750000 0.608036 0.500000
O O2 0.601147 0.600637 0.660462
O O3 0.656815 0.697339 0.559820
O O4 0.765971 0.635879 0.719712
O O5 0.942678 0.500000 0.250000
O O6 0.909537 0.404470 0.392232
O O7 0.061803 0.413924 0.276188
O O8 0.906032 0.193058 0.339937
O O9 0.848010 0.295079 0.418240
O O10 0.000000 0.250000 0.498224
O O11 0.609878 0.652650 0.107860
O O12 0.250000 0.615024 0.500000
#
# Coordination Sequence:
#
# PCOD9532965 Si02
#       5
#    16  16  16  16  16
#     4  10  24  48  71 105 147 194 244 308 378 442
#     4  12  28  48  72 104 145 197 256 309 372 454
#     4  11  23  43  75 109 149 192 235 304 377 454
#     4  11  25  46  70 107 148 190 250 308 379 446
#     4  12  25  45  73 108 145 191 247 313 380 448
#
# _framework density 22.031431999999999
#
# number of rings (size 3 to 8) (size 9 to 14) (size 15 to 20)
#    0.000    0.800    4.000    3.000    5.600    4.800 
#    0.000    0.000    0.000    0.000    0.000    0.000 
#    0.000    0.000    0.000    0.000    0.000    0.000 
#
# Total GULP energy -223512.874622 kJ/mol
# GULP energy per Si atom -5587.821866 kJ/mol
# Density = 2.198129 g / cm^3
# Si number density = 22.031432 Si / 1000 Ang^3
#
#
#
# Elastic Constant Matrix: (Units=GPa)
#
#
# Indices 1 2 3 4 5 6 
#
# 1 116.8607 41.5261 18.5832 0.0000 0.0000 0.0000
# 2 41.5261 144.5167 49.2102 -0.0001 0.0000 0.0000
# 3 18.5832 49.2102 101.6955 -0.0005 0.0000 0.0002
# 4 0.0000 -0.0001 -0.0005 18.8363 0.0000 0.0000
# 5 0.0000 0.0000 0.0000 0.0000 7.5309 0.0000
# 6 0.0000 0.0000 0.0002 0.0000 0.0000 -15.1939
#
#
#
# Elastic Compliance Matrix: (Units=1/GPa)
#
#
# Indices 1 2 3 4 5 6 
#
# 1 0.009551 -0.002574 -0.000500 0.000000 0.000000 0.000000
# 2 -0.002574 0.008979 -0.003874 0.000000 0.000000 0.000000
# 3 -0.000500 -0.003874 0.011799 0.000000 0.000000 0.000000
# 4 0.000000 0.000000 0.000000 0.053089 0.000000 0.000000
# 5 0.000000 0.000000 0.000000 0.000000 0.132787 0.000000
# 6 0.000000 0.000000 0.000000 0.000000 0.000000 -0.065816
#
#
# Mechanical properties :
#
#
# Convention : Reuss Voigt Hill
#
# Bulk Modulus (GPa) = 60.85416 64.63467 62.74441
# Shear Modulus (GPa) = 29.45272 19.15155 24.30214
#
# Velocity S-wave (km/s) = 3.66026 2.95156 3.32485
# Velocity P-wave (km/s) = 6.74869 6.40443 6.57882
#
# Compressibility (1/GPa) = 0.01643273
#
# Stress axis : x y z
#
# Youngs Moduli (GPa) = 104.69603 111.37559 84.75055
#
# Poissons Ratio (x) = 0.28673 0.04234
# Poissons Ratio (y) = 0.26953 0.32835
# Poissons Ratio (z) = 0.05231 0.43150
#
# Static dielectric constant tensor:
#      x y z
#    x 1.841040 0.000000 0.000000 
#    y 0.000000 1.762970 0.000000 
#    z 0.000000 0.000000 1.890060 
# 
# From -- ./inp_files/10787.got.cif
#   From: 2010.05.17/outbox.cif.g08.bks.cpg/sg73_6_cif.got.tgz:10787.got - 2010.06.03 17:35:07.
