data_PCOD9532576
_publ_section_title
;
Structure prediction by ZEFSAII (Michael W. Deem and Ramdas Pophale) SiO2 
 PCOD9532576
Probable space group: I B C A 
;
_chemical_formula_sum "Si O2"
_cell_formula_units_Z 88
_cell_length_a 18.166755
_cell_length_b 13.330678
_cell_length_c 18.092497
_cell_angle_alpha 90.000000
_cell_angle_beta 90.000000
_cell_angle_gamma 90.000000
_cell_volume 4381.553378
_symmetry_space_group_name_H-M "I B C A "
_symmetry_group_IT_number 73
_symmetry_cell_setting 'orthorhombic'
loop_
_space_group_symop_operation_xyz
x,y,z
-x,1/2-y,z
x,-y,1/2-z
1/2-x,y,-z
-x,-y,-z
x,1/2+y,-z
-x,y,1/2+z
1/2+x,-y,z
1/2+x,1/2+y,1/2+z
1/2-x,-y,1/2+z
1/2+x,1/2-y,-z
-x,1/2+y,1/2-z
1/2-x,1/2-y,1/2-z
1/2+x,y,1/2-z
1/2-x,1/2+y,z
x,1/2-y,1/2+z
loop_
_atom_site_type_symbol
_atom_site_label
_atom_site_fract_x
_atom_site_fract_y
_atom_site_fract_z
Si Si1 0.218374 0.800765 0.322963
Si Si2 0.187885 0.136562 0.556443
Si Si3 0.960463 0.000000 0.250000
Si Si4 0.949210 0.847408 0.846503
Si Si5 0.149358 0.932483 0.633312
Si Si6 0.423729 0.207353 0.011531
O O1 0.250000 0.750000 0.250000
O O2 0.222071 0.718625 0.388213
O O3 0.133076 0.831049 0.316133
O O4 0.270337 0.893757 0.343503
O O5 0.250000 0.099088 0.500000
O O6 0.125623 0.198010 0.512804
O O7 0.154744 0.045481 0.603013
O O8 0.906139 0.929812 0.202341
O O9 0.010884 0.939281 0.307166
O O10 0.000000 0.750000 0.833060
O O11 0.941237 0.853127 0.935610
O O12 0.118647 0.861538 0.568969
O O13 0.500000 0.250000 0.042484
#
# Coordination Sequence:
#
# PCOD9532576 Si02
#       6
#    16  16   8  16  16  16
#     4  11  24  44  69  99 134 178 226 278 340 406
#     4  11  24  42  67  98 134 175 225 282 339 401
#     4  12  26  44  62 100 136 180 220 280 352 410
#     4  10  23  44  66  90 138 174 218 279 338 403
#     4  12  25  43  70  98 139 175 226 287 341 409
#     4  10  23  45  68  99 130 178 225 279 338 407
#
# _framework density 20.084202000000001
#
# number of rings (size 3 to 8) (size 9 to 14) (size 15 to 20)
#    0.000    1.091    1.818    5.455    5.091    7.273 
#    0.000    0.000    0.000    0.000    0.000    0.000 
#    0.000    0.000    0.000    0.000    0.000    0.000 
#
# Total GULP energy -246108.889006 kJ/mol
# GULP energy per Si atom -5593.383841 kJ/mol
# Density = 2.003849 g / cm^3
# Si number density = 20.084202 Si / 1000 Ang^3
#
#
#
# Elastic Constant Matrix: (Units=GPa)
#
#
# Indices 1 2 3 4 5 6 
#
# 1 141.7660 31.1542 53.5100 0.0000 0.0000 0.0000
# 2 31.1542 66.4393 22.7071 0.0000 0.0000 0.0000
# 3 53.5100 22.7071 41.4934 0.0000 0.0000 0.0000
# 4 0.0000 0.0000 0.0000 18.4252 0.0000 0.0000
# 5 0.0000 0.0000 0.0000 0.0000 27.8121 0.0000
# 6 0.0000 0.0000 0.0000 0.0000 0.0000 27.8022
#
#
#
# Elastic Compliance Matrix: (Units=1/GPa)
#
#
# Indices 1 2 3 4 5 6 
#
# 1 0.013756 -0.000477 -0.017479 0.000000 0.000000 0.000000
# 2 -0.000477 0.018531 -0.009526 0.000000 0.000000 0.000000
# 3 -0.017479 -0.009526 0.051854 0.000000 0.000000 0.000000
# 4 0.000000 0.000000 0.000000 0.054273 0.000000 0.000000
# 5 0.000000 0.000000 0.000000 0.000000 0.035956 0.000000
# 6 0.000000 0.000000 0.000000 0.000000 0.000000 0.035968
#
#
# Mechanical properties :
#
#
# Convention : Reuss Voigt Hill
#
# Bulk Modulus (GPa) = 34.27313 51.60460 42.93887
# Shear Modulus (GPa) = 18.17994 24.29639 21.23816
#
# Velocity S-wave (km/s) = 3.01190 3.48189 3.25538
# Velocity P-wave (km/s) = 5.40344 6.47415 5.96287
#
# Compressibility (1/GPa) = 0.02917737
#
# Stress axis : x y z
#
# Youngs Moduli (GPa) = 72.69476 53.96482 19.28473
#
# Poissons Ratio (x) = 0.02572 0.33708
# Poissons Ratio (y) = 0.03464 0.18371
# Poissons Ratio (z) = 1.27064 0.51408
#
# Static dielectric constant tensor:
#      x y z
#    x 1.694970 0.000000 0.000000 
#    y 0.000000 1.690000 0.000000 
#    z 0.000000 0.000000 1.695710 
# 
# From -- ./inp_files/12730.got.cif
#   From: 2010.05.17/outbox.cif.g08.bks.cpg/sg73_7_cif.got.tgz:12730.got - 2010.06.03 17:35:07.
