data_PCOD9532477
_publ_section_title
;
Structure prediction by ZEFSAII (Michael W. Deem and Ramdas Pophale) SiO2 
 PCOD9532477
Probable space group: I B C A 
;
_chemical_formula_sum "Si O2"
_cell_formula_units_Z 72
_cell_length_a 25.695665
_cell_length_b 13.308030
_cell_length_c 8.755469
_cell_angle_alpha 90.000000
_cell_angle_beta 90.000000
_cell_angle_gamma 90.000000
_cell_volume 2994.008628
_symmetry_space_group_name_H-M "I B C A "
_symmetry_group_IT_number 73
_symmetry_cell_setting 'orthorhombic'
loop_
_space_group_symop_operation_xyz
x,y,z
-x,1/2-y,z
x,-y,1/2-z
1/2-x,y,-z
-x,-y,-z
x,1/2+y,-z
-x,y,1/2+z
1/2+x,-y,z
1/2+x,1/2+y,1/2+z
1/2-x,-y,1/2+z
1/2+x,1/2-y,-z
-x,1/2+y,1/2-z
1/2-x,1/2-y,1/2-z
1/2+x,y,1/2-z
1/2-x,1/2+y,z
x,1/2-y,1/2+z
loop_
_atom_site_type_symbol
_atom_site_label
_atom_site_fract_x
_atom_site_fract_y
_atom_site_fract_z
Si Si1 0.553521 0.860033 0.689415
Si Si2 0.254859 0.000000 0.750000
Si Si3 0.667678 0.143281 0.799051
Si Si4 0.550531 0.866002 0.053786
Si Si5 0.164835 0.366850 0.567148
O O1 0.611172 0.900359 0.652294
O O2 0.502902 0.911734 0.617774
O O3 0.553385 0.746908 0.623393
O O4 0.547702 0.857274 0.871356
O O5 0.215908 0.926094 0.841297
O O6 0.291640 0.935339 0.641476
O O7 0.668867 0.145436 0.614914
O O8 0.671013 0.255497 0.862342
O O9 0.606667 0.909201 0.098719
#
# Coordination Sequence:
#
# PCOD9532477 Si02
#       5
#    16   8  16  16  16
#     4   9  16  30  54  85 117 149 190 238 295 358
#     4  12  24  40  60  84 120 160 204 250 300 352
#     4  10  23  41  63  91 121 158 203 251 302 358
#     4   9  16  30  54  85 117 149 190 238 295 358
#     4  10  23  41  63  91 121 158 203 251 302 358
#
# _framework density 24.048026
#
# number of rings (size 3 to 8) (size 9 to 14) (size 15 to 20)
#    0.000    2.222    0.000    4.000    0.000    5.333 
#    0.000    1.111    0.000    5.333    0.000    0.000 
#    0.000    0.000    0.000    0.000    0.000    0.000 
#
# Total GULP energy -201503.928418 kJ/mol
# GULP energy per Si atom -5597.331345 kJ/mol
# Density = 2.399329 g / cm^3
# Si number density = 24.048026 Si / 1000 Ang^3
#
#
#
# Elastic Constant Matrix: (Units=GPa)
#
#
# Indices 1 2 3 4 5 6 
#
# 1 273.6555 76.5236 74.9968 0.0000 0.0000 0.0000
# 2 76.5236 101.5737 57.5744 0.0000 0.0000 0.0000
# 3 74.9968 57.5744 73.8711 0.0000 0.0000 0.0000
# 4 0.0000 0.0000 0.0000 36.1517 0.0000 0.0000
# 5 0.0000 0.0000 0.0000 0.0000 25.0558 0.0000
# 6 0.0000 0.0000 0.0000 0.0000 0.0000 352.9657
#
#
#
# Elastic Compliance Matrix: (Units=1/GPa)
#
#
# Indices 1 2 3 4 5 6 
#
# 1 0.005215 -0.001662 -0.003999 0.000000 0.000000 0.000000
# 2 -0.001662 0.018166 -0.012471 0.000000 0.000000 0.000000
# 3 -0.003999 -0.012471 0.027317 0.000000 0.000000 0.000000
# 4 0.000000 0.000000 0.000000 0.027661 0.000000 0.000000
# 5 0.000000 0.000000 0.000000 0.000000 0.039911 0.000000
# 6 0.000000 0.000000 0.000000 0.000000 0.000000 0.002833
#
#
# Mechanical properties :
#
#
# Convention : Reuss Voigt Hill
#
# Bulk Modulus (GPa) = 69.28274 96.36553 82.82413
# Shear Modulus (GPa) = 30.83015 98.83500 64.83258
#
# Velocity S-wave (km/s) = 3.58442 6.41781 5.19790
# Velocity P-wave (km/s) = 6.78259 9.75073 8.39882
#
# Compressibility (1/GPa) = 0.01443361
#
# Stress axis : x y z
#
# Youngs Moduli (GPa) = 191.75586 55.04732 36.60741
#
# Poissons Ratio (x) = 0.09150 0.14639
# Poissons Ratio (y) = 0.31872 0.45653
# Poissons Ratio (z) = 0.76683 0.68650
#
# Static dielectric constant tensor:
#      x y z
#    x 1.991580 0.000000 0.000000 
#    y 0.000000 1.914070 0.000000 
#    z 0.000000 0.000000 1.854830 
# 
# From -- ./inp_files/7614.got.cif
#   From: 2010.05.17/outbox.cif.g08.bks.cpg/sg73_4_cif.got.tgz:7614.got - 2010.06.03 17:35:07.
