data_PCOD9532599
_publ_section_title
;
Structure prediction by ZEFSAII (Michael W. Deem and Ramdas Pophale) SiO2 
 PCOD9532599
Probable space group: I B C A 
;
_chemical_formula_sum "Si O2"
_cell_formula_units_Z 72
_cell_length_a 21.012744
_cell_length_b 9.620299
_cell_length_c 14.470748
_cell_angle_alpha 90.000000
_cell_angle_beta 90.000000
_cell_angle_gamma 90.000000
_cell_volume 2925.245502
_symmetry_space_group_name_H-M "I B C A "
_symmetry_group_IT_number 73
_symmetry_cell_setting 'orthorhombic'
loop_
_space_group_symop_operation_xyz
x,y,z
-x,1/2-y,z
x,-y,1/2-z
1/2-x,y,-z
-x,-y,-z
x,1/2+y,-z
-x,y,1/2+z
1/2+x,-y,z
1/2+x,1/2+y,1/2+z
1/2-x,-y,1/2+z
1/2+x,1/2-y,-z
-x,1/2+y,1/2-z
1/2-x,1/2-y,1/2-z
1/2+x,y,1/2-z
1/2-x,1/2+y,z
x,1/2-y,1/2+z
loop_
_atom_site_type_symbol
_atom_site_label
_atom_site_fract_x
_atom_site_fract_y
_atom_site_fract_z
Si Si1 0.000000 0.250000 0.471061
Si Si2 0.119921 0.086513 0.513024
Si Si3 0.308531 0.153446 0.945475
Si Si4 0.683240 0.130905 0.799635
Si Si5 0.445156 0.850309 0.291089
O O1 0.048913 0.147012 0.519725
O O2 0.042711 0.340286 0.400356
O O3 0.163951 0.221275 0.491960
O O4 0.287555 0.264554 0.352144
O O5 0.136723 0.963783 0.441986
O O6 0.250000 0.087565 0.000000
O O7 0.500000 0.250000 0.748573
O O8 0.625987 0.190693 0.737370
O O9 0.716948 0.000000 0.750000
O O10 0.645776 0.945367 0.615423
O O11 0.457796 0.000000 0.250000
#
# Coordination Sequence:
#
# PCOD9532599 Si02
#       5
#     8  16  16  16  16
#     4  10  24  36  64 112 138 180 232 286 362 446
#     4  10  24  39  73  98 141 179 244 289 364 427
#     4  10  23  44  73  95 135 190 251 293 351 414
#     4   9  22  39  64  96 139 183 227 296 363 412
#     4   9  21  35  59  89 144 175 220 271 352 420
#
# _framework density 24.613320000000002
#
# number of rings (size 3 to 8) (size 9 to 14) (size 15 to 20)
#    2.000    0.444    0.000    0.667   10.889    0.889 
#    0.000    1.111    0.000    0.000    0.000    0.000 
#    0.000    0.000    0.000    0.000    0.000    0.000 
#
# Total GULP energy -200484.109237 kJ/mol
# GULP energy per Si atom -5569.003034 kJ/mol
# Density = 2.455730 g / cm^3
# Si number density = 24.613320 Si / 1000 Ang^3
#
#
#
# Elastic Constant Matrix: (Units=GPa)
#
#
# Indices 1 2 3 4 5 6 
#
# 1 68.0662 27.4520 13.4028 0.0000 0.0000 0.0000
# 2 27.4520 130.0984 24.3555 0.0000 0.0000 0.0000
# 3 13.4028 24.3555 58.5797 0.0000 0.0000 0.0000
# 4 0.0000 0.0000 0.0000 34.7553 0.0000 0.0000
# 5 0.0000 0.0000 0.0000 0.0000 -16.3349 0.0000
# 6 0.0000 0.0000 0.0000 0.0000 0.0000 33.5178
#
#
#
# Elastic Compliance Matrix: (Units=1/GPa)
#
#
# Indices 1 2 3 4 5 6 
#
# 1 0.016391 -0.002989 -0.002507 0.000000 0.000000 0.000000
# 2 -0.002989 0.008880 -0.003008 0.000000 0.000000 0.000000
# 3 -0.002507 -0.003008 0.018895 0.000000 0.000000 0.000000
# 4 0.000000 0.000000 0.000000 0.028773 0.000000 0.000000
# 5 0.000000 0.000000 0.000000 0.000000 -0.061219 0.000000
# 6 0.000000 0.000000 0.000000 0.000000 0.000000 0.029835
#
#
# Mechanical properties :
#
#
# Convention : Reuss Voigt Hill
#
# Bulk Modulus (GPa) = 36.82319 43.01832 39.92075
# Shear Modulus (GPa) = 73.94560 23.15658 48.55109
#
# Velocity S-wave (km/s) = 5.48709 3.07060 4.44616
# Velocity P-wave (km/s) = 7.42545 5.48516 6.52780
#
# Compressibility (1/GPa) = 0.02715680
#
# Stress axis : x y z
#
# Youngs Moduli (GPa) = 61.00942 112.60727 52.92355
#
# Poissons Ratio (x) = 0.33661 0.13270
# Poissons Ratio (y) = 0.18237 0.15921
# Poissons Ratio (z) = 0.15297 0.33875
#
# Static dielectric constant tensor:
#      x y z
#    x 2.062900 0.000000 0.000000 
#    y 0.000000 2.029180 0.000000 
#    z 0.000000 0.000000 2.028770 
# 
# From -- ./inp_files/32588.got.cif
#   From: 2010.05.17/outbox.cif.g08.bks.cpg/sg73_17_cif.got.tgz:32588.got - 2010.06.03 17:35:07.
