data_PCOD9532849
_publ_section_title
;
Structure prediction by ZEFSAII (Michael W. Deem and Ramdas Pophale) SiO2 
 PCOD9532849
Probable space group: I B C A 
;
_chemical_formula_sum "Si O2"
_cell_formula_units_Z 72
_cell_length_a 8.193040
_cell_length_b 28.499778
_cell_length_c 12.679711
_cell_angle_alpha 90.000000
_cell_angle_beta 90.000000
_cell_angle_gamma 90.000000
_cell_volume 2960.710251
_symmetry_space_group_name_H-M "I B C A "
_symmetry_group_IT_number 73
_symmetry_cell_setting 'orthorhombic'
loop_
_space_group_symop_operation_xyz
x,y,z
-x,1/2-y,z
x,-y,1/2-z
1/2-x,y,-z
-x,-y,-z
x,1/2+y,-z
-x,y,1/2+z
1/2+x,-y,z
1/2+x,1/2+y,1/2+z
1/2-x,-y,1/2+z
1/2+x,1/2-y,-z
-x,1/2+y,1/2-z
1/2-x,1/2-y,1/2-z
1/2+x,y,1/2-z
1/2-x,1/2+y,z
x,1/2-y,1/2+z
loop_
_atom_site_type_symbol
_atom_site_label
_atom_site_fract_x
_atom_site_fract_y
_atom_site_fract_z
Si Si1 0.963624 0.450236 0.131469
Si Si2 0.589664 0.832323 0.339425
Si Si3 0.750000 0.477396 0.500000
Si Si4 0.750000 0.727636 0.000000
Si Si5 0.500000 0.250000 0.324174
Si Si6 0.677551 0.897447 0.782294
O O1 0.835639 0.409598 0.150732
O O2 0.100411 0.447843 0.043140
O O3 0.082049 0.443046 0.234676
O O4 0.840146 0.491748 0.092194
O O5 0.614709 0.804456 0.445725
O O6 0.530468 0.794882 0.251196
O O7 0.751590 0.861518 0.305662
O O8 0.451448 0.870649 0.351377
O O9 0.658461 0.750525 0.099285
#
# Coordination Sequence:
#
# PCOD9532849 Si02
#       6
#    16  16   8   8   8  16
#     4  10  24  44  70 103 141 182 237 293 376 428
#     4  11  24  47  67 103 149 191 254 308 359 444
#     4  10  24  45  73 108 140 182 244 306 344 487
#     4  12  26  41  77  98 140 202 244 320 380 419
#     4  12  26  46  70 110 144 194 266 306 364 456
#     4  10  24  45  68  99 148 191 232 316 359 441
#
# _framework density 24.318487999999999
#
# number of rings (size 3 to 8) (size 9 to 14) (size 15 to 20)
#    0.000    1.333    2.222    1.333    3.111   12.444 
#    0.000    0.000    0.000    0.000    0.000    0.000 
#    0.000    0.000    0.000    0.000    0.000    0.000 
#
# Total GULP energy -200788.232702 kJ/mol
# GULP energy per Si atom -5577.450908 kJ/mol
# Density = 2.426314 g / cm^3
# Si number density = 24.318488 Si / 1000 Ang^3
#
#
#
# Elastic Constant Matrix: (Units=GPa)
#
#
# Indices 1 2 3 4 5 6 
#
# 1 142.2349 35.5271 38.0677 -0.0001 0.0000 0.0000
# 2 35.5271 72.4811 50.7373 -0.0001 0.0000 0.0000
# 3 38.0677 50.7373 83.6779 -0.0001 0.0000 0.0001
# 4 -0.0001 -0.0001 -0.0001 31.9788 0.0000 0.0000
# 5 0.0000 0.0000 0.0000 0.0000 38.1342 0.0000
# 6 0.0000 0.0000 0.0001 0.0000 0.0000 -6.5704
#
#
#
# Elastic Compliance Matrix: (Units=1/GPa)
#
#
# Indices 1 2 3 4 5 6 
#
# 1 0.008251 -0.002461 -0.002261 0.000000 0.000000 0.000000
# 2 -0.002461 0.024705 -0.013860 0.000000 0.000000 0.000000
# 3 -0.002261 -0.013860 0.021383 0.000000 0.000000 0.000000
# 4 0.000000 0.000000 0.000000 0.031271 0.000000 0.000000
# 5 0.000000 0.000000 0.000000 0.000000 0.026223 0.000000
# 6 0.000000 0.000000 0.000000 0.000000 0.000000 -0.152199
#
#
# Mechanical properties :
#
#
# Convention : Reuss Voigt Hill
#
# Bulk Modulus (GPa) = 58.22723 60.78421 59.50572
# Shear Modulus (GPa) = 1981.19966 24.31267 1002.75616
#
# Velocity S-wave (km/s) = 28.57372 3.16533 20.32826
# Velocity P-wave (km/s) = 33.35574 6.19745 23.98972
#
# Compressibility (1/GPa) = 0.01717410
#
# Stress axis : x y z
#
# Youngs Moduli (GPa) = 121.20410 40.47721 46.76583
#
# Poissons Ratio (x) = 0.09963 0.10574
# Poissons Ratio (y) = 0.29832 0.64818
# Poissons Ratio (z) = 0.27405 0.56102
#
# Static dielectric constant tensor:
#      x y z
#    x 1.980690 0.000000 0.000000 
#    y 0.000000 1.991570 0.000000 
#    z 0.000000 0.000000 2.002680 
# 
# From -- ./inp_files/15553.got.cif
#   From: 2010.05.17/outbox.cif.g08.bks.cpg/sg73_8_cif.got.tgz:15553.got - 2010.06.03 17:35:07.
