data_PCOD9533505
_publ_section_title
;
Structure prediction by ZEFSAII (Michael W. Deem and Ramdas Pophale) SiO2 
 PCOD9533505
Probable space group: I B C A 
;
_chemical_formula_sum "Si O2"
_cell_formula_units_Z 72
_cell_length_a 17.761092
_cell_length_b 10.257827
_cell_length_c 19.713075
_cell_angle_alpha 90.000000
_cell_angle_beta 90.000000
_cell_angle_gamma 90.000000
_cell_volume 3591.529256
_symmetry_space_group_name_H-M "I B C A "
_symmetry_group_IT_number 73
_symmetry_cell_setting 'orthorhombic'
loop_
_space_group_symop_operation_xyz
x,y,z
-x,1/2-y,z
x,-y,1/2-z
1/2-x,y,-z
-x,-y,-z
x,1/2+y,-z
-x,y,1/2+z
1/2+x,-y,z
1/2+x,1/2+y,1/2+z
1/2-x,-y,1/2+z
1/2+x,1/2-y,-z
-x,1/2+y,1/2-z
1/2-x,1/2-y,1/2-z
1/2+x,y,1/2-z
1/2-x,1/2+y,z
x,1/2-y,1/2+z
loop_
_atom_site_type_symbol
_atom_site_label
_atom_site_fract_x
_atom_site_fract_y
_atom_site_fract_z
Si Si1 0.292409 0.899017 0.570318
Si Si2 0.766580 0.343558 0.346469
Si Si3 0.949185 0.128234 0.502900
Si Si4 0.338705 0.000000 0.250000
Si Si5 0.583006 0.197870 0.652858
O O1 0.250000 0.874156 0.500000
O O2 0.270216 0.785276 0.621878
O O3 0.380280 0.895646 0.553063
O O4 0.267735 0.037776 0.600039
O O5 0.853194 0.306103 0.332662
O O6 0.716586 0.394796 0.284568
O O7 0.918785 0.163157 0.427371
O O8 0.000000 0.250000 0.524960
O O9 0.000000 0.000000 0.500000
O O10 0.390538 0.072012 0.194893
O O11 0.500000 0.250000 0.670399
#
# Coordination Sequence:
#
# PCOD9533505 Si02
#       5
#    16  16  16   8  16
#     4  12  24  41  74 101 138 180 226 286 355 405
#     4  12  25  45  71 101 140 183 238 285 338 419
#     4  11  25  44  68 104 141 173 226 288 356 413
#     4  12  26  48  70 100 138 192 244 276 342 412
#     4  11  25  47  69  99 143 181 232 296 341 415
#
# _framework density 20.047170000000001
#
# number of rings (size 3 to 8) (size 9 to 14) (size 15 to 20)
#    0.000    0.444    4.444    4.000    6.222    0.889 
#    4.000    0.000    0.000    0.000    0.000    0.000 
#    0.000    0.000    0.000    0.000    0.000    0.000 
#
# Total GULP energy -201464.720471 kJ/mol
# GULP energy per Si atom -5596.242235 kJ/mol
# Density = 2.000154 g / cm^3
# Si number density = 20.047170 Si / 1000 Ang^3
#
#
#
# Elastic Constant Matrix: (Units=GPa)
#
#
# Indices 1 2 3 4 5 6 
#
# 1 149.2466 37.8011 21.9716 0.0000 0.0000 0.0000
# 2 37.8011 97.0822 -2.2270 0.0000 0.0000 0.0000
# 3 21.9716 -2.2270 35.8381 0.0000 0.0000 0.0000
# 4 0.0000 0.0000 0.0000 32.6295 0.0000 0.0000
# 5 0.0000 0.0000 0.0000 0.0000 34.1583 0.0000
# 6 0.0000 0.0000 0.0000 0.0000 0.0000 47.3535
#
#
#
# Elastic Compliance Matrix: (Units=1/GPa)
#
#
# Indices 1 2 3 4 5 6 
#
# 1 0.008337 -0.003368 -0.005320 0.000000 0.000000 0.000000
# 2 -0.003368 0.011676 0.002790 0.000000 0.000000 0.000000
# 3 -0.005320 0.002790 0.031338 0.000000 0.000000 0.000000
# 4 0.000000 0.000000 0.000000 0.030647 0.000000 0.000000
# 5 0.000000 0.000000 0.000000 0.000000 0.029275 0.000000
# 6 0.000000 0.000000 0.000000 0.000000 0.000000 0.021118
#
#
# Mechanical properties :
#
#
# Convention : Reuss Voigt Hill
#
# Bulk Modulus (GPa) = 25.28114 44.13981 34.71047
# Shear Modulus (GPa) = 31.77178 37.80300 34.78739
#
# Velocity S-wave (km/s) = 3.98534 4.34718 4.17018
# Velocity P-wave (km/s) = 5.81510 6.87481 6.36704
#
# Compressibility (1/GPa) = 0.03955519
#
# Stress axis : x y z
#
# Youngs Moduli (GPa) = 119.95249 85.64571 31.90969
#
# Poissons Ratio (x) = 0.28846 0.16977
# Poissons Ratio (y) = 0.40401 -0.08904
# Poissons Ratio (z) = 0.63819 -0.23899
#
# Static dielectric constant tensor:
#      x y z
#    x 1.700120 0.000000 0.000000 
#    y 0.000000 1.677940 0.000000 
#    z 0.000000 0.000000 1.704660 
# 
# From -- ./inp_files/26335.got.cif
#   From: 2010.05.17/outbox.cif.g08.bks.cpg/sg73_14_cif.got.tgz:26335.got - 2010.06.03 17:35:07.
