data_PCOD9533068
_publ_section_title
;
Structure prediction by ZEFSAII (Michael W. Deem and Ramdas Pophale) SiO2 
 PCOD9533068
Probable space group: I B C A 
;
_chemical_formula_sum "Si O2"
_cell_formula_units_Z 96
_cell_length_a 24.349298
_cell_length_b 9.550102
_cell_length_c 21.345839
_cell_angle_alpha 90.000000
_cell_angle_beta 90.000000
_cell_angle_gamma 90.000000
_cell_volume 4963.724676
_symmetry_space_group_name_H-M "I B C A "
_symmetry_group_IT_number 73
_symmetry_cell_setting 'orthorhombic'
loop_
_space_group_symop_operation_xyz
x,y,z
-x,1/2-y,z
x,-y,1/2-z
1/2-x,y,-z
-x,-y,-z
x,1/2+y,-z
-x,y,1/2+z
1/2+x,-y,z
1/2+x,1/2+y,1/2+z
1/2-x,-y,1/2+z
1/2+x,1/2-y,-z
-x,1/2+y,1/2-z
1/2-x,1/2-y,1/2-z
1/2+x,y,1/2-z
1/2-x,1/2+y,z
x,1/2-y,1/2+z
loop_
_atom_site_type_symbol
_atom_site_label
_atom_site_fract_x
_atom_site_fract_y
_atom_site_fract_z
Si Si1 0.914181 0.736898 0.619956
Si Si2 0.706792 0.651592 0.417384
Si Si3 0.720237 0.863005 0.207585
Si Si4 0.000000 0.750000 0.849242
Si Si5 0.250000 0.906196 0.000000
Si Si6 0.904799 0.835763 0.761864
Si Si7 0.009942 0.031990 0.427195
O O1 0.855961 0.674582 0.600698
O O2 0.907956 0.768185 0.693355
O O3 0.961608 0.627751 0.601604
O O4 0.934008 0.881143 0.586188
O O5 0.748312 0.628898 0.358699
O O6 0.712058 0.515780 0.462037
O O7 0.723064 0.797185 0.451469
O O8 0.750000 0.750000 0.250000
O O9 0.655146 0.831837 0.205821
O O10 0.724890 0.000000 0.250000
O O11 0.052782 0.746808 0.804770
O O12 0.007302 0.613823 0.891400
O O13 0.919439 0.000000 0.750000
O O14 0.000000 0.000000 0.500000
#
# Coordination Sequence:
#
# PCOD9533068 Si02
#       7
#    16  16  16   8   8  16  16
#     4  11  24  45  68  96 140 173 223 291 338 403
#     4  11  24  46  69  99 137 180 232 278 345 412
#     4  11  23  42  68 100 137 174 219 277 345 410
#     4  12  24  42  72  98 128 180 224 274 352 406
#     4  10  26  44  66  96 134 184 228 278 328 414
#     4  11  24  43  69 100 136 176 219 284 347 409
#     4  11  26  46  66  99 134 179 231 279 335 410
#
# _framework density 19.340315
#
# number of rings (size 3 to 8) (size 9 to 14) (size 15 to 20)
#    0.000    1.000    3.333    3.000    4.667    2.667 
#    6.000    0.000    0.000    0.000    0.000    0.000 
#    0.000    0.000    0.000    0.000    0.000    0.000 
#
# Total GULP energy -268012.709425 kJ/mol
# GULP energy per Si atom -5583.598113 kJ/mol
# Density = 1.929630 g / cm^3
# Si number density = 19.340315 Si / 1000 Ang^3
#
#
#
# Elastic Constant Matrix: (Units=GPa)
#
#
# Indices 1 2 3 4 5 6 
#
# 1 106.4373 31.9217 53.9817 0.0000 0.0000 0.0000
# 2 31.9217 96.4936 31.0943 0.0000 0.0000 0.0000
# 3 53.9817 31.0943 114.3682 0.0000 0.0000 0.0000
# 4 0.0000 0.0000 0.0000 42.2060 0.0000 0.0000
# 5 0.0000 0.0000 0.0000 0.0000 4.1053 0.0000
# 6 0.0000 0.0000 0.0000 0.0000 0.0000 12.1288
#
#
#
# Elastic Compliance Matrix: (Units=1/GPa)
#
#
# Indices 1 2 3 4 5 6 
#
# 1 0.012890 -0.002525 -0.005398 0.000000 0.000000 0.000000
# 2 -0.002525 0.011853 -0.002031 0.000000 0.000000 0.000000
# 3 -0.005398 -0.002031 0.011843 0.000000 0.000000 0.000000
# 4 0.000000 0.000000 0.000000 0.023693 0.000000 0.000000
# 5 0.000000 0.000000 0.000000 0.000000 0.243588 0.000000
# 6 0.000000 0.000000 0.000000 0.000000 0.000000 0.082448
#
#
# Mechanical properties :
#
#
# Convention : Reuss Voigt Hill
#
# Bulk Modulus (GPa) = 59.95249 61.25493 60.60371
# Shear Modulus (GPa) = 12.14231 25.04144 18.59187
#
# Velocity S-wave (km/s) = 2.50836 3.60221 3.10385
# Velocity P-wave (km/s) = 6.28134 7.00301 6.65196
#
# Compressibility (1/GPa) = 0.01667987
#
# Stress axis : x y z
#
# Youngs Moduli (GPa) = 77.57997 84.36622 84.43454
#
# Poissons Ratio (x) = 0.21301 0.45574
# Poissons Ratio (y) = 0.19588 0.17147
# Poissons Ratio (z) = 0.41874 0.17134
#
# Static dielectric constant tensor:
#      x y z
#    x 1.689410 0.000000 0.000000 
#    y 0.000000 1.652010 0.000000 
#    z 0.000000 0.000000 1.670240 
# 
# From -- ./inp_files/27542.got.cif
#   From: 2010.05.17/outbox.cif.g08.bks.cpg/sg73_14_cif.got.tgz:27542.got - 2010.06.03 17:35:07.
