data_PCOD9533652
_publ_section_title
;
Structure prediction by ZEFSAII (Michael W. Deem and Ramdas Pophale) SiO2 
 PCOD9533652
Probable space group: I B C A 
;
_chemical_formula_sum "Si O2"
_cell_formula_units_Z 88
_cell_length_a 21.967792
_cell_length_b 12.811352
_cell_length_c 13.894706
_cell_angle_alpha 90.000000
_cell_angle_beta 90.000000
_cell_angle_gamma 90.000000
_cell_volume 3910.485984
_symmetry_space_group_name_H-M "I B C A "
_symmetry_group_IT_number 73
_symmetry_cell_setting 'orthorhombic'
loop_
_space_group_symop_operation_xyz
x,y,z
-x,1/2-y,z
x,-y,1/2-z
1/2-x,y,-z
-x,-y,-z
x,1/2+y,-z
-x,y,1/2+z
1/2+x,-y,z
1/2+x,1/2+y,1/2+z
1/2-x,-y,1/2+z
1/2+x,1/2-y,-z
-x,1/2+y,1/2-z
1/2-x,1/2-y,1/2-z
1/2+x,y,1/2-z
1/2-x,1/2+y,z
x,1/2-y,1/2+z
loop_
_atom_site_type_symbol
_atom_site_label
_atom_site_fract_x
_atom_site_fract_y
_atom_site_fract_z
Si Si1 0.935650 0.370834 0.622671
Si Si2 0.250000 0.356680 0.500000
Si Si3 0.500000 0.750000 0.454952
Si Si4 0.028394 0.500000 0.750000
Si Si5 0.687693 0.483406 0.365028
Si Si6 0.768394 0.705579 0.148325
Si Si7 0.908362 0.218589 0.802489
O O1 0.872579 0.427030 0.599703
O O2 0.918668 0.279831 0.701211
O O3 0.967326 0.328975 0.526924
O O4 0.983442 0.449501 0.671423
O O5 0.296663 0.422374 0.563711
O O6 0.226176 0.274643 0.577731
O O7 0.448109 0.783457 0.379716
O O8 0.067696 0.400718 0.788423
O O9 0.677964 0.500000 0.250000
O O10 0.747526 0.411527 0.368882
O O11 0.750000 0.750000 0.250000
O O12 0.840959 0.715273 0.152827
#
# Coordination Sequence:
#
# PCOD9533652 Si02
#       7
#    16   8   8   8  16  16  16
#     4  12  25  51  74 107 159 196 259 323 381 455
#     4  12  28  48  78 116 150 196 268 302 402 476
#     4  12  26  48  74 106 150 204 250 318 380 442
#     4  12  24  50  76 106 146 204 260 304 378 470
#     4  12  26  51  80 113 154 206 255 324 399 462
#     4  12  27  50  76 111 159 200 250 331 390 460
#     4  12  27  50  72 112 159 197 258 323 388 456
#
# _framework density 22.503596999999999
#
# number of rings (size 3 to 8) (size 9 to 14) (size 15 to 20)
#    0.000    0.000    8.182    0.545    6.364    0.727 
#    3.273    0.000    0.000    0.000    0.000    0.000 
#    0.000    0.000    0.000    0.000    0.000    0.000 
#
# Total GULP energy -245708.341240 kJ/mol
# GULP energy per Si atom -5584.280483 kJ/mol
# Density = 2.245238 g / cm^3
# Si number density = 22.503597 Si / 1000 Ang^3
#
#
#
# Elastic Constant Matrix: (Units=GPa)
#
#
# Indices 1 2 3 4 5 6 
#
# 1 138.7011 29.8421 13.6618 0.0000 0.0000 0.0000
# 2 29.8421 90.5471 17.4107 0.0000 0.0000 0.0000
# 3 13.6618 17.4107 102.6034 0.0000 0.0000 0.0000
# 4 0.0000 0.0000 0.0000 41.3502 0.0000 0.0000
# 5 0.0000 0.0000 0.0000 0.0000 15.0905 0.0000
# 6 0.0000 0.0000 0.0000 0.0000 0.0000 96.9200
#
#
#
# Elastic Compliance Matrix: (Units=1/GPa)
#
#
# Indices 1 2 3 4 5 6 
#
# 1 0.007798 -0.002450 -0.000623 0.000000 0.000000 0.000000
# 2 -0.002450 0.012186 -0.001742 0.000000 0.000000 0.000000
# 3 -0.000623 -0.001742 0.010125 0.000000 0.000000 0.000000
# 4 0.000000 0.000000 0.000000 0.024184 0.000000 0.000000
# 5 0.000000 0.000000 0.000000 0.000000 0.066267 0.000000
# 6 0.000000 0.000000 0.000000 0.000000 0.000000 0.010318
#
#
# Mechanical properties :
#
#
# Convention : Reuss Voigt Hill
#
# Bulk Modulus (GPa) = 48.82753 50.40897 49.61825
# Shear Modulus (GPa) = 33.93652 48.73459 41.33555
#
# Velocity S-wave (km/s) = 3.88757 4.65869 4.29049
# Velocity P-wave (km/s) = 6.47269 7.16846 6.82944
#
# Compressibility (1/GPa) = 0.02048025
#
# Stress axis : x y z
#
# Youngs Moduli (GPa) = 128.23334 82.05825 98.76840
#
# Poissons Ratio (x) = 0.20108 0.06149
# Poissons Ratio (y) = 0.31423 0.17202
# Poissons Ratio (z) = 0.07983 0.14292
#
# Static dielectric constant tensor:
#      x y z
#    x 1.856090 0.000000 0.000000 
#    y 0.000000 1.880040 0.000000 
#    z 0.000000 0.000000 1.742540 
# 
# From -- ./inp_files/19290.got.cif
#   From: 2010.05.17/outbox.cif.g08.bks.cpg/sg73_10_cif.got.tgz:19290.got - 2010.06.03 17:35:07.
