data_PCOD9533869
_publ_section_title
;
Structure prediction by ZEFSAII (Michael W. Deem and Ramdas Pophale) SiO2 
 PCOD9533869
Probable space group: I M M A
;
_chemical_formula_sum "Si O2"
_cell_formula_units_Z 80
_cell_length_a 19.976163
_cell_length_b 8.472821
_cell_length_c 34.098909
_cell_angle_alpha 90.000000
_cell_angle_beta 90.000000
_cell_angle_gamma 90.000000
_cell_volume 5771.392203
_symmetry_space_group_name_H-M "I M M A"
_symmetry_group_IT_number 74
_symmetry_cell_setting 'orthorhombic'
loop_
_space_group_symop_operation_xyz
x,y,z
-x,1/2-y,z
x,-y,-z
-x,1/2+y,-z
-x,-y,-z
x,1/2+y,-z
-x,y,z
x,1/2-y,z
1/2+x,1/2+y,1/2+z
1/2-x,-y,1/2+z
1/2+x,1/2-y,1/2-z
1/2-x,y,1/2-z
1/2-x,1/2-y,1/2-z
1/2+x,y,1/2-z
1/2-x,1/2+y,1/2+z
1/2+x,-y,1/2+z
loop_
_atom_site_type_symbol
_atom_site_label
_atom_site_fract_x
_atom_site_fract_y
_atom_site_fract_z
Si Si1 0.222020 0.440436 0.188208
Si Si2 0.367564 0.438178 0.621513
Si Si3 0.577035 0.561499 0.542931
Si Si4 0.000000 0.059020 0.830631
Si Si5 0.646793 0.557591 0.767665
Si Si6 0.000000 0.060394 0.257832
O O1 0.220776 0.250000 0.186909
O O2 0.194626 0.504936 0.147466
O O3 0.296456 0.491045 0.201345
O O4 0.173281 0.489565 0.224344
O O5 0.367512 0.250000 0.619692
O O6 0.375899 0.503857 0.577891
O O7 0.434112 0.489194 0.645421
O O8 0.596398 0.500000 0.500000
O O9 0.500000 0.505259 0.550333
O O10 0.576218 0.750000 0.542412
O O11 0.000000 0.250000 0.826689
O O12 0.000000 0.981997 0.788064
O O13 0.646523 0.750000 0.767657
O O14 0.571097 0.501792 0.774474
O O15 0.000000 0.250000 0.261894
#
# Coordination Sequence:
#
# PCOD9533869 Si02
#       6
#    16  16  16   8  16   8
#     4   9  16  28  41  57  79 104 134 172 211 246
#     4  11  20  30  42  58  81 108 138 173 207 243
#     4  10  20  32  46  62  81 106 135 168 206 244
#     4  10  20  28  35  55  82 104 133 175 211 236
#     4   8  15  25  40  59  79 101 134 175 210 244
#     4  10  16  26  44  59  73 104 143 175 207 248
#
# _framework density 13.861473
#
# number of rings (size 3 to 8) (size 9 to 14) (size 15 to 20)
#    0.000    2.400    3.000    2.400    0.000    1.600 
#    0.000    3.000    0.000    0.000    0.000    0.000 
#    0.000    0.000    0.000    0.900    0.000    9.000 
#
# Total GULP energy -222934.803001 kJ/mol
# GULP energy per Si atom -5573.370075 kJ/mol
# Density = 1.382992 g / cm^3
# Si number density = 13.861473 Si / 1000 Ang^3
#
#
#
# Elastic Constant Matrix: (Units=GPa)
#
#
# Indices 1 2 3 4 5 6 
#
# 1 108.3736 16.2176 55.6069 0.0000 0.0000 0.0000
# 2 16.2176 14.9794 20.4092 0.0000 0.0000 0.0000
# 3 55.6069 20.4092 103.2373 0.0000 0.0000 0.0000
# 4 0.0000 0.0000 0.0000 20.3422 0.0000 0.0000
# 5 0.0000 0.0000 0.0000 0.0000 19.6926 0.0000
# 6 0.0000 0.0000 0.0000 0.0000 0.0000 11.1096
#
#
#
# Elastic Compliance Matrix: (Units=1/GPa)
#
#
# Indices 1 2 3 4 5 6 
#
# 1 0.013170 -0.006287 -0.005851 0.000000 0.000000 0.000000
# 2 -0.006287 0.094370 -0.015270 0.000000 0.000000 0.000000
# 3 -0.005851 -0.015270 0.015857 0.000000 0.000000 0.000000
# 4 0.000000 0.000000 0.000000 0.049159 0.000000 0.000000
# 5 0.000000 0.000000 0.000000 0.000000 0.050780 0.000000
# 6 0.000000 0.000000 0.000000 0.000000 0.000000 0.090013
#
#
# Mechanical properties :
#
#
# Convention : Reuss Voigt Hill
#
# Bulk Modulus (GPa) = 14.58130 45.67307 30.12718
# Shear Modulus (GPa) = 12.78692 19.18598 15.98645
#
# Velocity S-wave (km/s) = 3.04053 3.72442 3.39971
# Velocity P-wave (km/s) = 4.78211 7.17748 6.09856
#
# Compressibility (1/GPa) = 0.06858100
#
# Stress axis : x y z
#
# Youngs Moduli (GPa) = 75.92801 10.59664 63.06475
#
# Poissons Ratio (x) = 0.06662 0.36900
# Poissons Ratio (y) = 0.47736 0.96298
# Poissons Ratio (z) = 0.44426 0.16181
#
# Static dielectric constant tensor:
#      x y z
#    x 1.476170 0.000000 0.000000 
#    y 0.000000 1.466050 0.000000 
#    z 0.000000 0.000000 1.433530 
# 
# From -- ./inp_files/68055.got.cif
#   From: 2010.05.17/outbox.cif.g08.bks.cpg/sg74_35_cif.got.tgz:68055.got - 2010.06.03 17:57:02.
