data_PCOD9533726
_publ_section_title
;
Structure prediction by ZEFSAII (Michael W. Deem and Ramdas Pophale) SiO2 
 PCOD9533726
Probable space group: I B C A 
;
_chemical_formula_sum "Si O2"
_cell_formula_units_Z 104
_cell_length_a 13.573247
_cell_length_b 30.445431
_cell_length_c 10.796813
_cell_angle_alpha 90.000000
_cell_angle_beta 90.000000
_cell_angle_gamma 90.000000
_cell_volume 4461.711227
_symmetry_space_group_name_H-M "I B C A "
_symmetry_group_IT_number 73
_symmetry_cell_setting 'orthorhombic'
loop_
_space_group_symop_operation_xyz
x,y,z
-x,1/2-y,z
x,-y,1/2-z
1/2-x,y,-z
-x,-y,-z
x,1/2+y,-z
-x,y,1/2+z
1/2+x,-y,z
1/2+x,1/2+y,1/2+z
1/2-x,-y,1/2+z
1/2+x,1/2-y,-z
-x,1/2+y,1/2-z
1/2-x,1/2-y,1/2-z
1/2+x,y,1/2-z
1/2-x,1/2+y,z
x,1/2-y,1/2+z
loop_
_atom_site_type_symbol
_atom_site_label
_atom_site_fract_x
_atom_site_fract_y
_atom_site_fract_z
Si Si1 0.612243 0.390025 0.921681
Si Si2 0.636826 0.212987 0.364328
Si Si3 0.450609 0.500000 0.750000
Si Si4 0.384282 0.422685 0.913331
Si Si5 0.095128 0.425353 0.820439
Si Si6 0.598194 0.369163 0.188428
Si Si7 0.128855 0.730058 0.135685
O O1 0.618705 0.338890 0.881487
O O2 0.500111 0.408651 0.932383
O O3 0.652296 0.420043 0.809297
O O4 0.648732 0.388440 0.063845
O O5 0.601308 0.232614 0.233917
O O6 0.600717 0.235756 0.491793
O O7 0.753178 0.223153 0.363511
O O8 0.388121 0.469246 0.841983
O O9 0.525298 0.531933 0.822649
O O10 0.350972 0.386652 0.813112
O O11 0.345260 0.423623 0.052898
O O12 0.013887 0.386593 0.814734
O O13 0.593769 0.317312 0.181716
#
# Coordination Sequence:
#
# PCOD9533726 Si02
#       7
#    16  16   8  16  16  16  16
#     4   8  15  27  40  57  82 106 130 162 199 237
#     4   9  17  29  44  60  78 103 136 171 203 234
#     4   8  14  24  40  62  86 104 128 162 194 230
#     4   9  16  26  42  62  83 107 132 159 194 237
#     4   9  16  26  42  62  83 107 132 159 194 237
#     4   8  15  27  40  57  82 106 130 162 199 237
#     4   9  17  29  44  60  78 103 136 171 203 234
#
# _framework density 23.309442000000001
#
# number of rings (size 3 to 8) (size 9 to 14) (size 15 to 20)
#    0.000    3.692    0.000    0.462    0.000    2.462 
#    0.000    3.077    0.000   16.615    0.000   17.231 
#    0.000   19.692    0.000    0.000    0.000    0.000 
#
# Total GULP energy -289847.855388 kJ/mol
# GULP energy per Si atom -5573.997219 kJ/mol
# Density = 2.325639 g / cm^3
# Si number density = 23.309442 Si / 1000 Ang^3
#
#
#
# Elastic Constant Matrix: (Units=GPa)
#
#
# Indices 1 2 3 4 5 6 
#
# 1 48.0786 2.5856 -18.2806 -0.0001 0.0000 0.0000
# 2 2.5856 65.3116 39.8820 -0.0003 -0.0001 0.0000
# 3 -18.2806 39.8820 169.9492 -0.0002 0.0001 -0.0002
# 4 -0.0001 -0.0003 -0.0002 19.7799 -0.0001 -0.0001
# 5 0.0000 -0.0001 0.0001 -0.0001 8.8958 0.0000
# 6 0.0000 0.0000 -0.0002 -0.0001 0.0000 5.9900
#
#
#
# Elastic Compliance Matrix: (Units=1/GPa)
#
#
# Indices 1 2 3 4 5 6 
#
# 1 0.022091 -0.002715 0.003013 0.000000 0.000000 0.000000
# 2 -0.002715 0.018206 -0.004564 0.000000 0.000000 0.000000
# 3 0.003013 -0.004564 0.007279 0.000000 0.000000 0.000000
# 4 0.000000 0.000000 0.000000 0.050556 0.000000 0.000001
# 5 0.000000 0.000000 0.000000 0.000000 0.112413 0.000000
# 6 0.000000 0.000000 0.000000 0.000001 0.000000 0.166945
#
#
# Mechanical properties :
#
#
# Convention : Reuss Voigt Hill
#
# Bulk Modulus (GPa) = 25.61160 36.85703 31.23432
# Shear Modulus (GPa) = 12.53017 24.20997 18.37007
#
# Velocity S-wave (km/s) = 2.32104 3.22628 2.81035
# Velocity P-wave (km/s) = 4.26550 5.45205 4.89486
#
# Compressibility (1/GPa) = 0.03904481
#
# Stress axis : x y z
#
# Youngs Moduli (GPa) = 45.26743 54.92736 137.37492
#
# Poissons Ratio (x) = 0.14910 -0.41394
# Poissons Ratio (y) = 0.12288 0.62703
# Poissons Ratio (z) = -0.13640 0.25071
#
# Static dielectric constant tensor:
#      x y z
#    x 1.891020 0.000000 0.000000 
#    y 0.000000 1.831410 0.000000 
#    z 0.000000 0.000000 2.015340 
# 
# From -- ./inp_files/12190.got.cif
#   From: 2010.05.17/outbox.cif.g08.bks.cpg/sg73_7_cif.got.tgz:12190.got - 2010.06.03 17:35:07.
