data_PCOD9533622
_publ_section_title
;
Structure prediction by ZEFSAII (Michael W. Deem and Ramdas Pophale) SiO2 
 PCOD9533622
Probable space group: I B C A 
;
_chemical_formula_sum "Si O2"
_cell_formula_units_Z 104
_cell_length_a 22.760425
_cell_length_b 9.513661
_cell_length_c 21.678611
_cell_angle_alpha 90.000000
_cell_angle_beta 90.000000
_cell_angle_gamma 90.000000
_cell_volume 4694.177332
_symmetry_space_group_name_H-M "I B C A "
_symmetry_group_IT_number 73
_symmetry_cell_setting 'orthorhombic'
loop_
_space_group_symop_operation_xyz
x,y,z
-x,1/2-y,z
x,-y,1/2-z
1/2-x,y,-z
-x,-y,-z
x,1/2+y,-z
-x,y,1/2+z
1/2+x,-y,z
1/2+x,1/2+y,1/2+z
1/2-x,-y,1/2+z
1/2+x,1/2-y,-z
-x,1/2+y,1/2-z
1/2-x,1/2-y,1/2-z
1/2+x,y,1/2-z
1/2-x,1/2+y,z
x,1/2-y,1/2+z
loop_
_atom_site_type_symbol
_atom_site_label
_atom_site_fract_x
_atom_site_fract_y
_atom_site_fract_z
Si Si1 0.672179 0.000000 0.250000
Si Si2 0.868288 0.889041 0.969211
Si Si3 0.605759 0.480691 0.178110
Si Si4 0.347863 0.290759 0.340674
Si Si5 0.468977 0.103179 0.055638
Si Si6 0.193016 0.157041 0.475678
Si Si7 0.290384 0.747795 0.336727
O O1 0.632020 0.111219 0.285359
O O2 0.708064 0.108139 0.206203
O O3 0.879403 0.860385 0.898815
O O4 0.859318 0.049795 0.984632
O O5 0.914821 0.837096 0.016939
O O6 0.812381 0.792305 0.982048
O O7 0.584030 0.500000 0.250000
O O8 0.637336 0.628242 0.162610
O O9 0.558581 0.458169 0.120931
O O10 0.657640 0.360156 0.178619
O O11 0.276385 0.306657 0.337925
O O12 0.500000 0.250000 0.072939
O O13 0.500000 0.000000 0.000000
O O14 0.250000 0.077833 0.500000
O O15 0.196938 0.195475 0.405217
#
# Coordination Sequence:
#
# PCOD9533622 Si02
#       7
#     8  16  16  16  16  16  16
#     4  12  24  40  60  98 150 204 242 270 332 430
#     4  12  25  43  69 102 141 188 243 302 367 432
#     4  12  27  48  76 111 151 194 246 304 373 446
#     4  12  25  40  66 108 156 204 242 284 348 443
#     4  12  28  53  81 105 137 186 252 329 391 434
#     4  12  24  39  64 106 150 190 234 287 350 438
#     4  12  25  41  67 105 158 202 237 282 346 447
#
# _framework density 22.155107999999998
#
# number of rings (size 3 to 8) (size 9 to 14) (size 15 to 20)
#    0.000    0.000    6.154    4.615    2.154    0.000 
#    0.000    2.308    1.692    0.000    0.000    0.000 
#    0.000    0.000    0.000    0.000    0.000    0.000 
#
# Total GULP energy -289521.816989 kJ/mol
# GULP energy per Si atom -5567.727250 kJ/mol
# Density = 2.210468 g / cm^3
# Si number density = 22.155108 Si / 1000 Ang^3
#
#
#
# Elastic Constant Matrix: (Units=GPa)
#
#
# Indices 1 2 3 4 5 6 
#
# 1 48.2053 41.5460 37.1846 0.0000 0.0000 0.0000
# 2 41.5460 140.1530 37.2016 0.0000 0.0000 0.0000
# 3 37.1846 37.2016 125.4595 0.0000 0.0000 0.0000
# 4 0.0000 0.0000 0.0000 10.6172 0.0000 0.0000
# 5 0.0000 0.0000 0.0000 0.0000 21.9301 0.0000
# 6 0.0000 0.0000 0.0000 0.0000 0.0000 39.7966
#
#
#
# Elastic Compliance Matrix: (Units=1/GPa)
#
#
# Indices 1 2 3 4 5 6 
#
# 1 0.033366 -0.007887 -0.007551 0.000000 0.000000 0.000000
# 2 -0.007887 0.009609 -0.000512 0.000000 0.000000 0.000000
# 3 -0.007551 -0.000512 0.010360 0.000000 0.000000 0.000000
# 4 0.000000 0.000000 0.000000 0.094187 0.000000 0.000000
# 5 0.000000 0.000000 0.000000 0.000000 0.045599 0.000000
# 6 0.000000 0.000000 0.000000 0.000000 0.000000 0.025128
#
#
# Mechanical properties :
#
#
# Convention : Reuss Voigt Hill
#
# Bulk Modulus (GPa) = 46.64796 60.63137 53.63966
# Shear Modulus (GPa) = 19.43306 27.66115 23.54710
#
# Velocity S-wave (km/s) = 2.96486 3.53728 3.26364
# Velocity P-wave (km/s) = 5.72900 6.64148 6.20204
#
# Compressibility (1/GPa) = 0.02143717
#
# Stress axis : x y z
#
# Youngs Moduli (GPa) = 29.97036 104.07178 96.52146
#
# Poissons Ratio (x) = 0.82078 0.72881
# Poissons Ratio (y) = 0.23637 0.04939
# Poissons Ratio (z) = 0.22630 0.05325
#
# Static dielectric constant tensor:
#      x y z
#    x 2.185710 0.000000 0.000000 
#    y 0.000000 1.841470 0.000000 
#    z 0.000000 0.000000 1.918140 
# 
# From -- ./inp_files/27614.got.cif
#   From: 2010.05.17/outbox.cif.g08.bks.cpg/sg73_14_cif.got.tgz:27614.got - 2010.06.03 17:35:07.
