data_PCOD9533519
_publ_section_title
;
Structure prediction by ZEFSAII (Michael W. Deem and Ramdas Pophale) SiO2 
 PCOD9533519
Probable space group: I B C A 
;
_chemical_formula_sum "Si O2"
_cell_formula_units_Z 80
_cell_length_a 11.285548
_cell_length_b 13.849256
_cell_length_c 22.763850
_cell_angle_alpha 90.000000
_cell_angle_beta 90.000000
_cell_angle_gamma 90.000000
_cell_volume 3557.908792
_symmetry_space_group_name_H-M "I B C A "
_symmetry_group_IT_number 73
_symmetry_cell_setting 'orthorhombic'
loop_
_space_group_symop_operation_xyz
x,y,z
-x,1/2-y,z
x,-y,1/2-z
1/2-x,y,-z
-x,-y,-z
x,1/2+y,-z
-x,y,1/2+z
1/2+x,-y,z
1/2+x,1/2+y,1/2+z
1/2-x,-y,1/2+z
1/2+x,1/2-y,-z
-x,1/2+y,1/2-z
1/2-x,1/2-y,1/2-z
1/2+x,y,1/2-z
1/2-x,1/2+y,z
x,1/2-y,1/2+z
loop_
_atom_site_type_symbol
_atom_site_label
_atom_site_fract_x
_atom_site_fract_y
_atom_site_fract_z
Si Si1 0.281244 0.941561 0.858948
Si Si2 0.371689 0.218398 0.717857
Si Si3 0.458813 0.906196 0.965891
Si Si4 0.623051 0.791246 0.577930
Si Si5 0.682244 0.352939 0.109943
O O1 0.349582 0.892799 0.803570
O O2 0.368204 0.933418 0.914703
O O3 0.173337 0.871405 0.877623
O O4 0.231093 0.050098 0.858633
O O5 0.500000 0.250000 0.745148
O O6 0.250000 0.250000 0.750000
O O7 0.367689 0.280915 0.658579
O O8 0.576683 0.868741 0.935102
O O9 0.399506 0.836677 0.013909
O O10 0.500000 0.000000 0.000000
O O11 0.500000 0.750000 0.600274
O O12 0.712394 0.702172 0.577430
#
# Coordination Sequence:
#
# PCOD9533519 Si02
#       5
#    16  16  16  16  16
#     4  11  25  47  67 107 145 186 246 304 372 457
#     4  11  26  52  79 105 141 195 257 330 390 438
#     4  12  24  42  68 103 154 196 236 290 365 454
#     4  11  26  37  66 103 144 198 240 283 358 453
#     4  11  26  47  71 105 148 194 244 307 369 462
#
# _framework density 22.485118
#
# number of rings (size 3 to 8) (size 9 to 14) (size 15 to 20)
#    0.000    0.800    4.000    1.800    8.400    5.600 
#    0.000    2.000    0.000    0.000    0.000    0.000 
#    0.000    0.000    0.000    0.000    0.000    0.000 
#
# Total GULP energy -223797.317743 kJ/mol
# GULP energy per Si atom -5594.932944 kJ/mol
# Density = 2.243394 g / cm^3
# Si number density = 22.485118 Si / 1000 Ang^3
#
#
#
# Elastic Constant Matrix: (Units=GPa)
#
#
# Indices 1 2 3 4 5 6 
#
# 1 146.9051 22.0963 20.0921 0.0000 0.0000 0.0000
# 2 22.0963 102.9524 7.7059 0.0000 0.0000 0.0000
# 3 20.0921 7.7059 52.0352 0.0000 0.0000 0.0000
# 4 0.0000 0.0000 0.0000 25.6629 0.0000 0.0000
# 5 0.0000 0.0000 0.0000 0.0000 19.2831 0.0000
# 6 0.0000 0.0000 0.0000 0.0000 0.0000 35.6665
#
#
#
# Elastic Compliance Matrix: (Units=1/GPa)
#
#
# Indices 1 2 3 4 5 6 
#
# 1 0.007377 -0.001385 -0.002643 0.000000 0.000000 0.000000
# 2 -0.001385 0.010082 -0.000958 0.000000 0.000000 0.000000
# 3 -0.002643 -0.000958 0.020380 0.000000 0.000000 0.000000
# 4 0.000000 0.000000 0.000000 0.038967 0.000000 0.000000
# 5 0.000000 0.000000 0.000000 0.000000 0.051859 0.000000
# 6 0.000000 0.000000 0.000000 0.000000 0.000000 0.028038
#
#
# Mechanical properties :
#
#
# Convention : Reuss Voigt Hill
#
# Bulk Modulus (GPa) = 35.88620 44.63127 40.25874
# Shear Modulus (GPa) = 28.41470 32.92238 30.66854
#
# Velocity S-wave (km/s) = 3.55873 3.83062 3.69717
# Velocity P-wave (km/s) = 5.73417 6.28150 6.01406
#
# Compressibility (1/GPa) = 0.02786586
#
# Stress axis : x y z
#
# Youngs Moduli (GPa) = 135.55604 99.18373 49.06702
#
# Poissons Ratio (x) = 0.13741 0.12970
# Poissons Ratio (y) = 0.18781 0.04701
# Poissons Ratio (z) = 0.35831 0.09503
#
# Static dielectric constant tensor:
#      x y z
#    x 1.872370 0.000000 0.000000 
#    y 0.000000 1.850830 0.000000 
#    z 0.000000 0.000000 1.698920 
# 
# From -- ./inp_files/28787.got.cif
#   From: 2010.05.17/outbox.cif.g08.bks.cpg/sg73_15_cif.got.tgz:28787.got - 2010.06.03 17:35:07.
