data_PCOD9533365
_publ_section_title
;
Structure prediction by ZEFSAII (Michael W. Deem and Ramdas Pophale) SiO2 
 PCOD9533365
Probable space group: I B C A 
;
_chemical_formula_sum "Si O2"
_cell_formula_units_Z 88
_cell_length_a 29.784077
_cell_length_b 11.342662
_cell_length_c 10.744028
_cell_angle_alpha 90.000000
_cell_angle_beta 90.000000
_cell_angle_gamma 90.000000
_cell_volume 3629.662698
_symmetry_space_group_name_H-M "I B C A "
_symmetry_group_IT_number 73
_symmetry_cell_setting 'orthorhombic'
loop_
_space_group_symop_operation_xyz
x,y,z
-x,1/2-y,z
x,-y,1/2-z
1/2-x,y,-z
-x,-y,-z
x,1/2+y,-z
-x,y,1/2+z
1/2+x,-y,z
1/2+x,1/2+y,1/2+z
1/2-x,-y,1/2+z
1/2+x,1/2-y,-z
-x,1/2+y,1/2-z
1/2-x,1/2-y,1/2-z
1/2+x,y,1/2-z
1/2-x,1/2+y,z
x,1/2-y,1/2+z
loop_
_atom_site_type_symbol
_atom_site_label
_atom_site_fract_x
_atom_site_fract_y
_atom_site_fract_z
Si Si1 0.706569 0.500000 0.750000
Si Si2 0.930417 0.063914 0.518554
Si Si3 0.041901 0.194134 0.429853
Si Si4 0.376245 0.344947 0.255439
Si Si5 0.358511 0.386730 0.688799
Si Si6 0.735037 0.817926 0.874354
O O1 0.670478 0.600077 0.789116
O O2 0.737623 0.558981 0.645003
O O3 0.954598 0.192873 0.522401
O O4 0.897739 0.074802 0.637566
O O5 0.900645 0.070714 0.393321
O O6 0.958697 0.941812 0.522402
O O7 0.087370 0.182750 0.350758
O O8 0.000000 0.250000 0.351058
O O9 0.367874 0.209774 0.295947
O O10 0.337921 0.500000 0.750000
O O11 0.318015 0.335660 0.609041
O O12 0.750000 0.750000 0.750000
O O13 0.750000 0.755851 0.000000
#
# Coordination Sequence:
#
# PCOD9533365 Si02
#       6
#     8  16  16  16  16  16
#     4  12  22  46  66 102 142 196 252 304 388 458
#     4  11  23  44  71 100 142 193 237 306 380 455
#     4  11  24  42  69 105 138 182 243 304 377 457
#     4  11  23  44  70  98 139 191 239 301 382 461
#     4  11  24  44  68 103 142 190 250 308 373 451
#     4  12  27  45  69 108 150 203 261 325 379 457
#
# _framework density 24.244678
#
# number of rings (size 3 to 8) (size 9 to 14) (size 15 to 20)
#    0.000    0.727    4.545    2.727    0.000    1.455 
#    3.273    9.091    0.000    0.000    0.000    0.000 
#    0.000    0.000    0.000    0.000    0.000    0.000 
#
# Total GULP energy -244968.199083 kJ/mol
# GULP energy per Si atom -5567.459070 kJ/mol
# Density = 2.418950 g / cm^3
# Si number density = 24.244678 Si / 1000 Ang^3
#
#
#
# Elastic Constant Matrix: (Units=GPa)
#
#
# Indices 1 2 3 4 5 6 
#
# 1 102.1727 57.1554 -2.2310 0.0000 0.0000 0.0000
# 2 57.1554 188.3553 23.4884 0.0000 0.0000 0.0000
# 3 -2.2310 23.4884 60.2069 0.0000 0.0000 0.0000
# 4 0.0000 0.0000 0.0000 20.1181 0.0000 0.0000
# 5 0.0000 0.0000 0.0000 0.0000 16.8400 0.0000
# 6 0.0000 0.0000 0.0000 0.0000 0.0000 53.9954
#
#
#
# Elastic Compliance Matrix: (Units=1/GPa)
#
#
# Indices 1 2 3 4 5 6 
#
# 1 0.012005 -0.003887 0.001961 0.000000 0.000000 0.000000
# 2 -0.003887 0.006839 -0.002812 0.000000 0.000000 0.000000
# 3 0.001961 -0.002812 0.017779 0.000000 0.000000 0.000000
# 4 0.000000 0.000000 0.000000 0.049706 0.000000 0.000000
# 5 0.000000 0.000000 0.000000 0.000000 0.059382 0.000000
# 6 0.000000 0.000000 0.000000 0.000000 0.000000 0.018520
#
#
# Mechanical properties :
#
#
# Convention : Reuss Voigt Hill
#
# Bulk Modulus (GPa) = 36.83659 56.39559 46.61609
# Shear Modulus (GPa) = 27.35864 36.34553 31.85208
#
# Velocity S-wave (km/s) = 3.36287 3.87604 3.62854
# Velocity P-wave (km/s) = 5.50501 6.58355 6.06829
#
# Compressibility (1/GPa) = 0.02714692
#
# Stress axis : x y z
#
# Youngs Moduli (GPa) = 83.30009 146.21115 56.24544
#
# Poissons Ratio (x) = 0.56838 -0.11032
# Poissons Ratio (y) = 0.32382 0.15818
# Poissons Ratio (z) = -0.16339 0.41119
#
# Static dielectric constant tensor:
#      x y z
#    x 2.079180 0.000000 0.000000 
#    y 0.000000 2.341810 0.000000 
#    z 0.000000 0.000000 1.996210 
# 
# From -- ./inp_files/9868.got.cif
#   From: 2010.05.17/outbox.cif.g08.bks.cpg/sg73_5_cif.got.tgz:9868.got - 2010.06.03 17:35:07.
