data_PCOD9533085
_publ_section_title
;
Structure prediction by ZEFSAII (Michael W. Deem and Ramdas Pophale) SiO2 
 PCOD9533085
Probable space group: I B C A 
;
_chemical_formula_sum "Si O2"
_cell_formula_units_Z 48
_cell_length_a 9.864779
_cell_length_b 11.985209
_cell_length_c 16.918338
_cell_angle_alpha 90.000000
_cell_angle_beta 90.000000
_cell_angle_gamma 90.000000
_cell_volume 2000.279431
_symmetry_space_group_name_H-M "I B C A "
_symmetry_group_IT_number 73
_symmetry_cell_setting 'orthorhombic'
loop_
_space_group_symop_operation_xyz
x,y,z
-x,1/2-y,z
x,-y,1/2-z
1/2-x,y,-z
-x,-y,-z
x,1/2+y,-z
-x,y,1/2+z
1/2+x,-y,z
1/2+x,1/2+y,1/2+z
1/2-x,-y,1/2+z
1/2+x,1/2-y,-z
-x,1/2+y,1/2-z
1/2-x,1/2-y,1/2-z
1/2+x,y,1/2-z
1/2-x,1/2+y,z
x,1/2-y,1/2+z
loop_
_atom_site_type_symbol
_atom_site_label
_atom_site_fract_x
_atom_site_fract_y
_atom_site_fract_z
Si Si1 0.622055 0.172781 0.767649
Si Si2 0.547495 0.993889 0.872258
Si Si3 0.393223 0.350217 0.474242
O O1 0.500000 0.250000 0.793801
O O2 0.750000 0.250000 0.750000
O O3 0.556580 0.101113 0.695287
O O4 0.651345 0.085752 0.837678
O O5 0.415636 0.069188 0.897372
O O6 0.585192 0.932719 0.951989
O O7 0.500000 0.250000 0.472321
O O8 0.250000 0.298493 0.500000
#
# Coordination Sequence:
#
# PCOD9533085 Si02
#       3
#    16  16  16
#     4  11  26  46  77 108 148 192 251 313 385 458
#     4  10  26  46  71 110 150 195 246 313 382 456
#     4  11  26  47  76 108 152 199 256 313 383 454
#
# _framework density 23.996648
#
# number of rings (size 3 to 8) (size 9 to 14) (size 15 to 20)
#    0.000    1.333    0.000    2.000   14.000    8.000 
#    0.000    0.000    0.000    0.000    0.000    0.000 
#    0.000    0.000    0.000    0.000    0.000    0.000 
#
# Total GULP energy -133767.854082 kJ/mol
# GULP energy per Si atom -5573.660587 kJ/mol
# Density = 2.394203 g / cm^3
# Si number density = 23.996648 Si / 1000 Ang^3
#
#
#
# Elastic Constant Matrix: (Units=GPa)
#
#
# Indices 1 2 3 4 5 6 
#
# 1 137.5756 63.5881 26.5239 0.0000 0.0000 0.0000
# 2 63.5881 146.1223 81.0064 0.0000 0.0000 0.0000
# 3 26.5239 81.0064 138.9534 0.0000 0.0000 0.0000
# 4 0.0000 0.0000 0.0000 52.6351 0.0000 0.0000
# 5 0.0000 0.0000 0.0000 0.0000 9.5061 0.0000
# 6 0.0000 0.0000 0.0000 0.0000 0.0000 41.7898
#
#
#
# Elastic Compliance Matrix: (Units=1/GPa)
#
#
# Indices 1 2 3 4 5 6 
#
# 1 0.009166 -0.004461 0.000851 0.000000 0.000000 0.000000
# 2 -0.004461 0.012282 -0.006309 0.000000 0.000000 0.000000
# 3 0.000851 -0.006309 0.010712 0.000000 0.000000 0.000000
# 4 0.000000 0.000000 0.000000 0.018999 0.000000 0.000000
# 5 0.000000 0.000000 0.000000 0.000000 0.105196 0.000000
# 6 0.000000 0.000000 0.000000 0.000000 0.000000 0.023929
#
#
# Mechanical properties :
#
#
# Convention : Reuss Voigt Hill
#
# Bulk Modulus (GPa) = 81.14623 84.98756 83.06689
# Shear Modulus (GPa) = 24.48227 37.55505 31.01866
#
# Velocity S-wave (km/s) = 3.19758 3.96032 3.59921
# Velocity P-wave (km/s) = 6.89360 7.51036 7.20858
#
# Compressibility (1/GPa) = 0.01232343
#
# Stress axis : x y z
#
# Youngs Moduli (GPa) = 109.09396 81.41959 93.35242
#
# Poissons Ratio (x) = 0.36318 -0.07941
# Poissons Ratio (y) = 0.48662 0.58893
# Poissons Ratio (z) = -0.09280 0.51365
#
# Static dielectric constant tensor:
#      x y z
#    x 1.974420 0.000000 0.000000 
#    y 0.000000 1.951140 0.000000 
#    z 0.000000 0.000000 1.969010 
# 
# From -- ./inp_files/9265.got.cif
#   From: 2010.05.17/outbox.cif.g08.bks.cpg/sg73_5_cif.got.tgz:9265.got - 2010.06.03 17:35:07.
