data_PCOD9533409
_publ_section_title
;
Structure prediction by ZEFSAII (Michael W. Deem and Ramdas Pophale) SiO2 
 PCOD9533409
Probable space group: I B C A 
;
_chemical_formula_sum "Si O2"
_cell_formula_units_Z 72
_cell_length_a 17.596958
_cell_length_b 9.461136
_cell_length_c 20.539696
_cell_angle_alpha 90.000000
_cell_angle_beta 90.000000
_cell_angle_gamma 90.000000
_cell_volume 3419.596739
_symmetry_space_group_name_H-M "I B C A "
_symmetry_group_IT_number 73
_symmetry_cell_setting 'orthorhombic'
loop_
_space_group_symop_operation_xyz
x,y,z
-x,1/2-y,z
x,-y,1/2-z
1/2-x,y,-z
-x,-y,-z
x,1/2+y,-z
-x,y,1/2+z
1/2+x,-y,z
1/2+x,1/2+y,1/2+z
1/2-x,-y,1/2+z
1/2+x,1/2-y,-z
-x,1/2+y,1/2-z
1/2-x,1/2-y,1/2-z
1/2+x,y,1/2-z
1/2-x,1/2+y,z
x,1/2-y,1/2+z
loop_
_atom_site_type_symbol
_atom_site_label
_atom_site_fract_x
_atom_site_fract_y
_atom_site_fract_z
Si Si1 0.005228 0.581781 0.567394
Si Si2 0.417148 0.066874 0.318250
Si Si3 0.441583 0.000000 0.750000
Si Si4 0.158428 0.422496 0.857769
Si Si5 0.780287 0.225510 0.676083
O O1 0.091110 0.552142 0.592142
O O2 0.000000 0.750000 0.560042
O O3 0.000000 0.500000 0.500000
O O4 0.940308 0.531770 0.619874
O O5 0.358714 0.189193 0.335263
O O6 0.384665 0.000000 0.250000
O O7 0.503068 0.094740 0.293468
O O8 0.390213 0.897385 0.792011
O O9 0.206033 0.563202 0.841593
O O10 0.215517 0.295404 0.868876
O O11 0.750000 0.250000 0.750000
#
# Coordination Sequence:
#
# PCOD9533409 Si02
#       5
#    16  16   8  16  16
#     4  11  28  50  77 102 142 192 256 304 361 429
#     4   9  22  40  70 103 142 182 233 308 361 431
#     4   8  18  36  58 104 130 182 224 290 348 410
#     4  11  24  41  67 103 145 187 233 294 362 429
#     4  12  23  39  68 108 153 183 232 293 377 435
#
# _framework density 21.055115000000001
#
# number of rings (size 3 to 8) (size 9 to 14) (size 15 to 20)
#    0.667    0.889    2.222    1.333    9.333    2.667 
#    0.000    1.111    0.000    0.000    0.000    0.000 
#    0.000    0.000    0.000    0.000    0.000    0.000 
#
# Total GULP energy -200626.774735 kJ/mol
# GULP energy per Si atom -5572.965965 kJ/mol
# Density = 2.100719 g / cm^3
# Si number density = 21.055115 Si / 1000 Ang^3
#
#
#
# Elastic Constant Matrix: (Units=GPa)
#
#
# Indices 1 2 3 4 5 6 
#
# 1 120.0970 35.0324 26.6476 0.0000 0.0000 0.0000
# 2 35.0324 94.5984 41.1254 0.0000 0.0000 0.0000
# 3 26.6476 41.1254 105.5070 0.0000 0.0000 0.0000
# 4 0.0000 0.0000 0.0000 23.4963 0.0000 0.0000
# 5 0.0000 0.0000 0.0000 0.0000 18.0350 0.0000
# 6 0.0000 0.0000 0.0000 0.0000 0.0000 41.5628
#
#
#
# Elastic Compliance Matrix: (Units=1/GPa)
#
#
# Indices 1 2 3 4 5 6 
#
# 1 0.009466 -0.002969 -0.001233 0.000000 0.000000 0.000000
# 2 -0.002969 0.013659 -0.004574 0.000000 0.000000 0.000000
# 3 -0.001233 -0.004574 0.011573 0.000000 0.000000 0.000000
# 4 0.000000 0.000000 0.000000 0.042560 0.000000 0.000000
# 5 0.000000 0.000000 0.000000 0.000000 0.055448 0.000000
# 6 0.000000 0.000000 0.000000 0.000000 0.000000 0.024060
#
#
# Mechanical properties :
#
#
# Convention : Reuss Voigt Hill
#
# Bulk Modulus (GPa) = 58.32947 58.42367 58.37657
# Shear Modulus (GPa) = 27.77241 31.11196 29.44218
#
# Velocity S-wave (km/s) = 3.63579 3.84818 3.74349
# Velocity P-wave (km/s) = 6.73711 6.89586 6.81695
#
# Compressibility (1/GPa) = 0.01714399
#
# Stress axis : x y z
#
# Youngs Moduli (GPa) = 105.63583 73.21035 86.41127
#
# Poissons Ratio (x) = 0.21740 0.10658
# Poissons Ratio (y) = 0.31368 0.39527
# Poissons Ratio (z) = 0.13030 0.33488
#
# Static dielectric constant tensor:
#      x y z
#    x 1.783460 0.000000 0.000000 
#    y 0.000000 1.781730 0.000000 
#    z 0.000000 0.000000 1.812030 
# 
# From -- ./inp_files/29726.got.cif
#   From: 2010.05.17/outbox.cif.g08.bks.cpg/sg73_15_cif.got.tgz:29726.got - 2010.06.03 17:35:07.
