data_PCOD9533404
_publ_section_title
;
Structure prediction by ZEFSAII (Michael W. Deem and Ramdas Pophale) SiO2 
 PCOD9533404
Probable space group: I B C A 
;
_chemical_formula_sum "Si O2"
_cell_formula_units_Z 80
_cell_length_a 16.652836
_cell_length_b 22.950210
_cell_length_c 9.512746
_cell_angle_alpha 90.000000
_cell_angle_beta 90.000000
_cell_angle_gamma 90.000000
_cell_volume 3635.639135
_symmetry_space_group_name_H-M "I B C A "
_symmetry_group_IT_number 73
_symmetry_cell_setting 'orthorhombic'
loop_
_space_group_symop_operation_xyz
x,y,z
-x,1/2-y,z
x,-y,1/2-z
1/2-x,y,-z
-x,-y,-z
x,1/2+y,-z
-x,y,1/2+z
1/2+x,-y,z
1/2+x,1/2+y,1/2+z
1/2-x,-y,1/2+z
1/2+x,1/2-y,-z
-x,1/2+y,1/2-z
1/2-x,1/2-y,1/2-z
1/2+x,y,1/2-z
1/2-x,1/2+y,z
x,1/2-y,1/2+z
loop_
_atom_site_type_symbol
_atom_site_label
_atom_site_fract_x
_atom_site_fract_y
_atom_site_fract_z
Si Si1 0.032765 0.813634 0.679991
Si Si2 0.750000 0.082001 0.000000
Si Si3 0.532956 0.540954 0.621558
Si Si4 0.781239 0.000000 0.250000
Si Si5 0.920289 0.361836 0.545149
Si Si6 0.661712 0.603336 0.447040
O O1 0.054237 0.811369 0.846319
O O2 0.113790 0.841306 0.613426
O O3 0.000000 0.750000 0.641868
O O4 0.964222 0.854397 0.605288
O O5 0.672126 0.121913 0.974548
O O6 0.763744 0.038852 0.867362
O O7 0.549960 0.500000 0.750000
O O8 0.500000 0.500000 0.500000
O O9 0.460442 0.585952 0.634715
O O10 0.609371 0.577658 0.573951
O O11 0.829422 0.951044 0.161201
O O12 0.750000 0.618793 0.500000
#
# Coordination Sequence:
#
# PCOD9533404 Si02
#       6
#    16   8  16   8  16  16
#     4  11  25  51  77 100 146 200 262 324 375 434
#     4  12  26  44  72 110 160 194 242 302 370 470
#     4  11  24  40  67 103 150 205 238 291 370 455
#     4  12  24  42  68 110 162 192 230 302 374 464
#     4  11  25  47  71 107 145 193 258 306 374 447
#     4  11  25  41  70 112 155 195 253 308 377 456
#
# _framework density 22.004384000000002
#
# number of rings (size 3 to 8) (size 9 to 14) (size 15 to 20)
#    0.000    0.800    3.000    4.200    4.200    3.200 
#    1.800    1.000    0.000    0.000    0.000    0.000 
#    0.000    0.000    0.000    0.000    0.000    0.000 
#
# Total GULP energy -223372.805820 kJ/mol
# GULP energy per Si atom -5584.320146 kJ/mol
# Density = 2.195430 g / cm^3
# Si number density = 22.004384 Si / 1000 Ang^3
#
#
#
# Elastic Constant Matrix: (Units=GPa)
#
#
# Indices 1 2 3 4 5 6 
#
# 1 183.2888 53.1153 57.2554 0.0000 0.0000 0.0000
# 2 53.1153 99.4310 28.4989 0.0000 0.0000 0.0000
# 3 57.2554 28.4989 128.5518 0.0000 0.0000 0.0000
# 4 0.0000 0.0000 0.0000 22.1825 0.0000 0.0000
# 5 0.0000 0.0000 0.0000 0.0000 34.3689 0.0000
# 6 0.0000 0.0000 0.0000 0.0000 0.0000 25.4578
#
#
#
# Elastic Compliance Matrix: (Units=1/GPa)
#
#
# Indices 1 2 3 4 5 6 
#
# 1 0.007131 -0.003096 -0.002490 0.000000 0.000000 0.000000
# 2 -0.003096 0.012083 -0.001300 0.000000 0.000000 0.000000
# 3 -0.002490 -0.001300 0.009176 0.000000 0.000000 0.000000
# 4 0.000000 0.000000 0.000000 0.045080 0.000000 0.000000
# 5 0.000000 0.000000 0.000000 0.000000 0.029096 0.000000
# 6 0.000000 0.000000 0.000000 0.000000 0.000000 0.039281
#
#
# Mechanical properties :
#
#
# Convention : Reuss Voigt Hill
#
# Bulk Modulus (GPa) = 68.40136 76.55676 72.47906
# Shear Modulus (GPa) = 31.15436 34.56199 32.85817
#
# Velocity S-wave (km/s) = 3.76683 3.96749 3.86846
# Velocity P-wave (km/s) = 7.07612 7.47363 7.27759
#
# Compressibility (1/GPa) = 0.01461959
#
# Stress axis : x y z
#
# Youngs Moduli (GPa) = 140.23990 82.75763 108.97950
#
# Poissons Ratio (x) = 0.25618 0.27132
# Poissons Ratio (y) = 0.43412 0.14168
# Poissons Ratio (z) = 0.34915 0.10759
#
# Static dielectric constant tensor:
#      x y z
#    x 1.801450 0.000000 0.000000 
#    y 0.000000 1.370730 0.000000 
#    z 0.000000 0.000000 1.097010 
# 
# From -- ./inp_files/5615.got.cif
#   From: 2010.05.17/outbox.cif.g08.bks.cpg/sg73_3_cif.got.tgz:5615.got - 2010.06.03 17:35:07.
