data_PCOD9533001
_publ_section_title
;
Structure prediction by ZEFSAII (Michael W. Deem and Ramdas Pophale) SiO2 
 PCOD9533001
Probable space group: I B C A 
;
_chemical_formula_sum "Si O2"
_cell_formula_units_Z 64
_cell_length_a 27.408430
_cell_length_b 9.170813
_cell_length_c 10.662661
_cell_angle_alpha 90.000000
_cell_angle_beta 90.000000
_cell_angle_gamma 90.000000
_cell_volume 2680.140731
_symmetry_space_group_name_H-M "I B C A "
_symmetry_group_IT_number 73
_symmetry_cell_setting 'orthorhombic'
loop_
_space_group_symop_operation_xyz
x,y,z
-x,1/2-y,z
x,-y,1/2-z
1/2-x,y,-z
-x,-y,-z
x,1/2+y,-z
-x,y,1/2+z
1/2+x,-y,z
1/2+x,1/2+y,1/2+z
1/2-x,-y,1/2+z
1/2+x,1/2-y,-z
-x,1/2+y,1/2-z
1/2-x,1/2-y,1/2-z
1/2+x,y,1/2-z
1/2-x,1/2+y,z
x,1/2-y,1/2+z
loop_
_atom_site_type_symbol
_atom_site_label
_atom_site_fract_x
_atom_site_fract_y
_atom_site_fract_z
Si Si1 0.595925 0.377181 0.999494
Si Si2 0.500000 0.250000 0.386961
Si Si3 0.057786 0.500000 0.250000
Si Si4 0.250000 0.947339 0.500000
Si Si5 0.133294 0.500000 0.750000
Si Si6 0.314335 0.791999 0.898875
O O1 0.544302 0.301979 0.973640
O O2 0.603577 0.477958 0.877499
O O3 0.590902 0.457469 0.131891
O O4 0.641539 0.269027 0.016850
O O5 0.522959 0.372253 0.298288
O O6 0.225687 0.836621 0.600368
O O7 0.290873 0.059006 0.548052
O O8 0.163757 0.648984 0.730842
#
# Coordination Sequence:
#
# PCOD9533001 Si02
#       6
#    16   8   8   8   8  16
#     4  12  26  50  79 117 160 209 265 326 395 471
#     4  12  26  46  82 120 156 210 268 326 394 474
#     4  12  27  50  79 114 162 214 261 326 393 476
#     4  10  24  50  80 110 158 208 256 322 402 470
#     4  12  25  46  79 118 160 208 261 328 387 474
#     4  11  24  49  76 115 160 203 257 323 396 467
#
# _framework density 23.879342999999999
#
# number of rings (size 3 to 8) (size 9 to 14) (size 15 to 20)
#    0.000    0.500    2.500    5.250    0.000    1.000 
#    0.000    0.000    0.000    0.000    0.000    0.000 
#    0.000    0.000    0.000    0.000    0.000    0.000 
#
# Total GULP energy -179095.569546 kJ/mol
# GULP energy per Si atom -5596.736548 kJ/mol
# Density = 2.382499 g / cm^3
# Si number density = 23.879343 Si / 1000 Ang^3
#
#
#
# Elastic Constant Matrix: (Units=GPa)
#
#
# Indices 1 2 3 4 5 6 
#
# 1 133.6839 58.7230 58.6097 0.0000 0.0000 0.0000
# 2 58.7230 141.5113 68.4432 0.0000 0.0000 0.0000
# 3 58.6097 68.4432 169.9251 0.0000 0.0000 0.0000
# 4 0.0000 0.0000 0.0000 384.5475 0.0000 0.0000
# 5 0.0000 0.0000 0.0000 0.0000 9.8069 0.0000
# 6 0.0000 0.0000 0.0000 0.0000 0.0000 25.3534
#
#
#
# Elastic Compliance Matrix: (Units=1/GPa)
#
#
# Indices 1 2 3 4 5 6 
#
# 1 0.009742 -0.003002 -0.002151 0.000000 0.000000 0.000000
# 2 -0.003002 0.009702 -0.002872 0.000000 0.000000 0.000000
# 3 -0.002151 -0.002872 0.007784 0.000000 0.000000 0.000000
# 4 0.000000 0.000000 0.000000 0.002600 0.000000 0.000000
# 5 0.000000 0.000000 0.000000 0.000000 0.101969 0.000000
# 6 0.000000 0.000000 0.000000 0.000000 0.000000 0.039442
#
#
# Mechanical properties :
#
#
# Convention : Reuss Voigt Hill
#
# Bulk Modulus (GPa) = 89.47224 90.74135 90.10680
# Shear Modulus (GPa) = 26.17584 101.23118 63.70351
#
# Velocity S-wave (km/s) = 3.31444 6.51804 5.17061
# Velocity P-wave (km/s) = 7.22476 9.73287 8.57106
#
# Compressibility (1/GPa) = 0.01117665
#
# Stress axis : x y z
#
# Youngs Moduli (GPa) = 102.64626 103.07591 128.47449
#
# Poissons Ratio (x) = 0.30948 0.27634
# Poissons Ratio (y) = 0.30819 0.36899
# Poissons Ratio (z) = 0.22078 0.29604
#
# Static dielectric constant tensor:
#      x y z
#    x 1.968210 0.000000 0.000000 
#    y 0.000000 1.936680 0.000000 
#    z 0.000000 0.000000 1.980190 
# 
# From -- ./inp_files/4057.got.cif
#   From: 2010.05.17/outbox.cif.g08.bks.cpg/sg73_3_cif.got.tgz:4057.got - 2010.06.03 17:35:07.
