data_PCOD9533523
_publ_section_title
;
Structure prediction by ZEFSAII (Michael W. Deem and Ramdas Pophale) SiO2 
 PCOD9533523
Probable space group: I B C A 
;
_chemical_formula_sum "Si O2"
_cell_formula_units_Z 112
_cell_length_a 13.067622
_cell_length_b 14.152401
_cell_length_c 25.771596
_cell_angle_alpha 90.000000
_cell_angle_beta 90.000000
_cell_angle_gamma 90.000000
_cell_volume 4766.153262
_symmetry_space_group_name_H-M "I B C A "
_symmetry_group_IT_number 73
_symmetry_cell_setting 'orthorhombic'
loop_
_space_group_symop_operation_xyz
x,y,z
-x,1/2-y,z
x,-y,1/2-z
1/2-x,y,-z
-x,-y,-z
x,1/2+y,-z
-x,y,1/2+z
1/2+x,-y,z
1/2+x,1/2+y,1/2+z
1/2-x,-y,1/2+z
1/2+x,1/2-y,-z
-x,1/2+y,1/2-z
1/2-x,1/2-y,1/2-z
1/2+x,y,1/2-z
1/2-x,1/2+y,z
x,1/2-y,1/2+z
loop_
_atom_site_type_symbol
_atom_site_label
_atom_site_fract_x
_atom_site_fract_y
_atom_site_fract_z
Si Si1 0.000000 0.250000 0.685267
Si Si2 0.108718 0.609011 0.506742
Si Si3 0.180877 0.072077 0.375192
Si Si4 0.250000 0.230664 0.000000
Si Si5 0.540092 0.536013 0.700241
Si Si6 0.858380 0.935587 0.153997
Si Si7 0.760211 0.250623 0.686898
Si Si8 0.606003 0.408354 0.045602
O O1 0.984568 0.145426 0.708310
O O2 0.121182 0.239588 0.666798
O O3 0.151170 0.596471 0.565606
O O4 0.163101 0.698085 0.481156
O O5 0.128041 0.512443 0.476105
O O6 0.988107 0.625541 0.510766
O O7 0.193379 0.166180 0.340036
O O8 0.288617 0.018491 0.369365
O O9 0.103033 0.995157 0.350320
O O10 0.201935 0.160578 0.958533
O O11 0.601896 0.500000 0.750000
O O12 0.434874 0.477540 0.695848
O O13 0.788437 0.849735 0.171585
O O14 0.926347 0.904127 0.104973
O O15 0.750000 0.250000 0.750000
#
# Coordination Sequence:
#
# PCOD9533523 Si02
#       8
#     8  16  16   8  16  16  16  16
#     4  12  24  50  68 108 140 198 254 300 372 440
#     4  11  25  47  73 104 144 189 243 305 377 451
#     4  12  25  45  74 107 145 199 249 310 379 443
#     4  12  22  42  72 104 140 178 234 300 364 434
#     4  12  26  46  75 105 155 200 254 308 371 446
#     4  12  25  45  74 107 145 199 249 310 379 443
#     4  12  27  44  74 106 151 199 255 307 374 454
#     4  11  25  47  73 104 144 189 243 305 377 451
#
# _framework density 23.499034000000002
#
# number of rings (size 3 to 8) (size 9 to 14) (size 15 to 20)
#    0.000    0.286    4.286    5.143    0.000    0.571 
#    0.000    0.000    0.000    0.000    0.000    0.000 
#    0.000    0.000    0.000    0.000    0.000    0.000 
#
# Total GULP energy -312592.547432 kJ/mol
# GULP energy per Si atom -5582.009776 kJ/mol
# Density = 2.344555 g / cm^3
# Si number density = 23.499034 Si / 1000 Ang^3
#
#
#
# Elastic Constant Matrix: (Units=GPa)
#
#
# Indices 1 2 3 4 5 6 
#
# 1 71.5948 20.9525 18.1138 0.0000 0.0000 0.0000
# 2 20.9525 154.8040 39.2339 0.0000 0.0000 0.0000
# 3 18.1138 39.2339 98.9293 0.0000 0.0000 0.0000
# 4 0.0000 0.0000 0.0000 9.2614 0.0000 0.0000
# 5 0.0000 0.0000 0.0000 0.0000 20.3722 0.0000
# 6 0.0000 0.0000 0.0000 0.0000 0.0000 50.1910
#
#
#
# Elastic Compliance Matrix: (Units=1/GPa)
#
#
# Indices 1 2 3 4 5 6 
#
# 1 0.014944 -0.001478 -0.002150 0.000000 0.000000 0.000000
# 2 -0.001478 0.007328 -0.002636 0.000000 0.000000 0.000000
# 3 -0.002150 -0.002636 0.011547 0.000000 0.000000 0.000000
# 4 0.000000 0.000000 0.000000 0.107975 0.000000 0.000000
# 5 0.000000 0.000000 0.000000 0.000000 0.049087 0.000000
# 6 0.000000 0.000000 0.000000 0.000000 0.000000 0.019924
#
#
# Mechanical properties :
#
#
# Convention : Reuss Voigt Hill
#
# Bulk Modulus (GPa) = 46.96590 53.54761 50.25676
# Shear Modulus (GPa) = 21.69867 32.43343 27.06605
#
# Velocity S-wave (km/s) = 3.04202 3.71914 3.39749
# Velocity P-wave (km/s) = 5.68931 6.42490 6.06826
#
# Compressibility (1/GPa) = 0.02129204
#
# Stress axis : x y z
#
# Youngs Moduli (GPa) = 66.91666 136.46787 86.60165
#
# Poissons Ratio (x) = 0.20166 0.18621
# Poissons Ratio (y) = 0.09888 0.22824
# Poissons Ratio (z) = 0.14388 0.35966
#
# Static dielectric constant tensor:
#      x y z
#    x 1.947480 0.000000 0.000000 
#    y 0.000000 1.860890 0.000000 
#    z 0.000000 0.000000 1.933920 
# 
# From -- ./inp_files/34055.got.cif
#   From: 2010.05.17/outbox.cif.g08.bks.cpg/sg73_18_cif.got.tgz:34055.got - 2010.06.03 17:35:07.
