data_PCOD9533217
_publ_section_title
;
Structure prediction by ZEFSAII (Michael W. Deem and Ramdas Pophale) SiO2 
 PCOD9533217
Probable space group: I B C A 
;
_chemical_formula_sum "Si O2"
_cell_formula_units_Z 104
_cell_length_a 27.706754
_cell_length_b 8.180373
_cell_length_c 22.487792
_cell_angle_alpha 90.000000
_cell_angle_beta 90.000000
_cell_angle_gamma 90.000000
_cell_volume 5096.893640
_symmetry_space_group_name_H-M "I B C A "
_symmetry_group_IT_number 73
_symmetry_cell_setting 'orthorhombic'
loop_
_space_group_symop_operation_xyz
x,y,z
-x,1/2-y,z
x,-y,1/2-z
1/2-x,y,-z
-x,-y,-z
x,1/2+y,-z
-x,y,1/2+z
1/2+x,-y,z
1/2+x,1/2+y,1/2+z
1/2-x,-y,1/2+z
1/2+x,1/2-y,-z
-x,1/2+y,1/2-z
1/2-x,1/2-y,1/2-z
1/2+x,y,1/2-z
1/2-x,1/2+y,z
x,1/2-y,1/2+z
loop_
_atom_site_type_symbol
_atom_site_label
_atom_site_fract_x
_atom_site_fract_y
_atom_site_fract_z
Si Si1 0.000000 0.750000 0.745949
Si Si2 0.227568 0.021627 0.179619
Si Si3 0.315649 0.357555 0.868522
Si Si4 0.586371 0.617702 0.820947
Si Si5 0.306042 0.655582 0.015024
Si Si6 0.841641 0.849691 0.589546
Si Si7 0.402237 0.735584 0.703601
O O1 0.968287 0.862511 0.701900
O O2 0.957503 0.677134 0.787474
O O3 0.206147 0.198267 0.165173
O O4 0.228896 0.000000 0.250000
O O5 0.280136 0.000999 0.150649
O O6 0.193604 0.890978 0.145065
O O7 0.368781 0.368570 0.839631
O O8 0.310980 0.305624 0.937480
O O9 0.604906 0.668823 0.884755
O O10 0.613909 0.732150 0.772060
O O11 0.597437 0.424652 0.817979
O O12 0.328981 0.700375 0.952325
O O13 0.250000 0.623310 0.000000
O O14 0.332112 0.507714 0.048284
#
# Coordination Sequence:
#
# PCOD9533217 Si02
#       7
#     8  16  16  16  16  16  16
#     4   8  18  32  64  86 108 136 198 256 308 380
#     4  11  22  36  54  88 120 166 195 252 300 367
#     4  11  22  36  59  84 126 168 204 241 303 368
#     4   9  17  35  63  84 111 148 197 245 321 370
#     4  11  22  36  56  83 120 171 215 245 277 348
#     4  11  22  36  60  81 120 166 207 241 296 361
#     4   9  17  36  62  89 111 153 194 248 324 370
#
# _framework density 20.404584
#
# number of rings (size 3 to 8) (size 9 to 14) (size 15 to 20)
#    0.923    0.923    4.615    1.846    2.154    0.000 
#    0.000    1.538    6.769    1.846    0.000    0.000 
#    0.000    0.000    0.000    0.000    0.000    0.000 
#
# Total GULP energy -289869.252257 kJ/mol
# GULP energy per Si atom -5574.408697 kJ/mol
# Density = 2.035814 g / cm^3
# Si number density = 20.404584 Si / 1000 Ang^3
#
#
#
# Elastic Constant Matrix: (Units=GPa)
#
#
# Indices 1 2 3 4 5 6 
#
# 1 122.5388 12.6502 43.6706 0.0000 0.0000 0.0000
# 2 12.6502 24.7418 10.6490 0.0000 0.0000 0.0000
# 3 43.6706 10.6490 117.8723 0.0000 0.0000 0.0000
# 4 0.0000 0.0000 0.0000 18.5086 0.0000 0.0000
# 5 0.0000 0.0000 0.0000 0.0000 25.6409 0.0000
# 6 0.0000 0.0000 0.0000 0.0000 0.0000 21.9215
#
#
#
# Elastic Compliance Matrix: (Units=1/GPa)
#
#
# Indices 1 2 3 4 5 6 
#
# 1 0.009692 -0.003548 -0.003270 0.000000 0.000000 0.000000
# 2 -0.003548 0.043351 -0.002602 0.000000 0.000000 0.000000
# 3 -0.003270 -0.002602 0.009930 0.000000 0.000000 0.000000
# 4 0.000000 0.000000 0.000000 0.054029 0.000000 0.000000
# 5 0.000000 0.000000 0.000000 0.000000 0.039000 0.000000
# 6 0.000000 0.000000 0.000000 0.000000 0.000000 0.045617
#
#
# Mechanical properties :
#
#
# Convention : Reuss Voigt Hill
#
# Bulk Modulus (GPa) = 22.65853 44.34361 33.50107
# Shear Modulus (GPa) = 21.26095 26.42641 23.84368
#
# Velocity S-wave (km/s) = 3.23146 3.60268 3.42211
# Velocity P-wave (km/s) = 5.00518 6.25181 5.66290
#
# Compressibility (1/GPa) = 0.04413349
#
# Stress axis : x y z
#
# Youngs Moduli (GPa) = 103.17267 23.06726 100.69988
#
# Poissons Ratio (x) = 0.08184 0.32933
# Poissons Ratio (y) = 0.36606 0.26202
# Poissons Ratio (z) = 0.33742 0.06002
#
# Static dielectric constant tensor:
#      x y z
#    x 1.788150 0.000000 0.000000 
#    y 0.000000 1.822920 0.000000 
#    z 0.000000 0.000000 1.724010 
# 
# From -- ./inp_files/23909.got.cif
#   From: 2010.05.17/outbox.cif.g08.bks.cpg/sg73_12_cif.got.tgz:23909.got - 2010.06.03 17:35:07.
