data_PCOD9533212
_publ_section_title
;
Structure prediction by ZEFSAII (Michael W. Deem and Ramdas Pophale) SiO2 
 PCOD9533212
Probable space group: I B C A 
;
_chemical_formula_sum "Si O2"
_cell_formula_units_Z 104
_cell_length_a 24.810032
_cell_length_b 12.408534
_cell_length_c 16.100325
_cell_angle_alpha 90.000000
_cell_angle_beta 90.000000
_cell_angle_gamma 90.000000
_cell_volume 4956.583676
_symmetry_space_group_name_H-M "I B C A "
_symmetry_group_IT_number 73
_symmetry_cell_setting 'orthorhombic'
loop_
_space_group_symop_operation_xyz
x,y,z
-x,1/2-y,z
x,-y,1/2-z
1/2-x,y,-z
-x,-y,-z
x,1/2+y,-z
-x,y,1/2+z
1/2+x,-y,z
1/2+x,1/2+y,1/2+z
1/2-x,-y,1/2+z
1/2+x,1/2-y,-z
-x,1/2+y,1/2-z
1/2-x,1/2-y,1/2-z
1/2+x,y,1/2-z
1/2-x,1/2+y,z
x,1/2-y,1/2+z
loop_
_atom_site_type_symbol
_atom_site_label
_atom_site_fract_x
_atom_site_fract_y
_atom_site_fract_z
Si Si1 0.191391 0.171983 0.612644
Si Si2 0.615942 0.033078 0.621251
Si Si3 0.700598 0.443744 0.658615
Si Si4 0.549435 0.689029 0.683701
Si Si5 0.640581 0.875507 0.054419
Si Si6 0.978962 0.500000 0.750000
Si Si7 0.646911 0.233298 0.719745
O O1 0.247132 0.108738 0.615473
O O2 0.176423 0.266021 0.547809
O O3 0.186626 0.231125 0.701741
O O4 0.145255 0.081261 0.612858
O O5 0.614606 0.085728 0.530932
O O6 0.651279 0.119836 0.673218
O O7 0.560406 0.015655 0.670787
O O8 0.710018 0.500000 0.750000
O O9 0.676524 0.532138 0.596634
O O10 0.660060 0.342956 0.671761
O O11 0.500000 0.750000 0.640906
O O12 0.592086 0.646600 0.617988
O O13 0.519190 0.598638 0.735840
O O14 0.586053 0.760085 0.745254
#
# Coordination Sequence:
#
# PCOD9533212 Si02
#       7
#    16  16  16  16  16   8  16
#     4  11  24  45  72  99 134 189 228 281 347 424
#     4  12  25  46  68 100 145 184 232 287 353 417
#     4  12  23  43  75 103 135 189 231 283 353 418
#     4  11  21  44  70  98 132 175 228 291 341 409
#     4  11  28  46  64 107 147 172 233 304 343 413
#     4  12  22  44  74  98 128 188 234 274 356 422
#     4  11  22  44  71 101 136 179 238 283 340 427
#
# _framework density 20.982194
#
# number of rings (size 3 to 8) (size 9 to 14) (size 15 to 20)
#    0.000    0.615    6.154    3.231    4.308    1.231 
#    2.769    0.000    0.000    0.000    0.000    0.000 
#    0.000    0.000    0.000    0.000    0.000    0.000 
#
# Total GULP energy -290560.790429 kJ/mol
# GULP energy per Si atom -5587.707508 kJ/mol
# Density = 2.093444 g / cm^3
# Si number density = 20.982194 Si / 1000 Ang^3
#
#
#
# Elastic Constant Matrix: (Units=GPa)
#
#
# Indices 1 2 3 4 5 6 
#
# 1 118.0149 37.5208 18.0874 0.0000 0.0000 0.0000
# 2 37.5208 120.6587 23.7072 0.0000 0.0000 0.0000
# 3 18.0874 23.7072 62.8824 0.0000 0.0000 0.0000
# 4 0.0000 0.0000 0.0000 21.4362 0.0000 0.0000
# 5 0.0000 0.0000 0.0000 0.0000 3.9112 0.0000
# 6 0.0000 0.0000 0.0000 0.0000 0.0000 50.0345
#
#
#
# Elastic Compliance Matrix: (Units=1/GPa)
#
#
# Indices 1 2 3 4 5 6 
#
# 1 0.009581 -0.002633 -0.001763 0.000000 0.000000 0.000000
# 2 -0.002633 0.009674 -0.002890 0.000000 0.000000 0.000000
# 3 -0.001763 -0.002890 0.017499 0.000000 0.000000 0.000000
# 4 0.000000 0.000000 0.000000 0.046650 0.000000 0.000000
# 5 0.000000 0.000000 0.000000 0.000000 0.255675 0.000000
# 6 0.000000 0.000000 0.000000 0.000000 0.000000 0.019986
#
#
# Mechanical properties :
#
#
# Convention : Reuss Voigt Hill
#
# Bulk Modulus (GPa) = 45.08064 51.13187 48.10626
# Shear Modulus (GPa) = 13.12225 29.89242 21.50734
#
# Velocity S-wave (km/s) = 2.50351 3.77856 3.20508
# Velocity P-wave (km/s) = 5.46705 6.59232 6.05588
#
# Compressibility (1/GPa) = 0.02218247
#
# Stress axis : x y z
#
# Youngs Moduli (GPa) = 104.37526 103.36544 57.14473
#
# Poissons Ratio (x) = 0.27215 0.10076
# Poissons Ratio (y) = 0.27481 0.16515
# Poissons Ratio (z) = 0.18403 0.29873
#
# Static dielectric constant tensor:
#      x y z
#    x 1.731920 0.000000 0.000000 
#    y 0.000000 1.798740 0.000000 
#    z 0.000000 0.000000 1.777190 
# 
# From -- ./inp_files/23918.got.cif
#   From: 2010.05.17/outbox.cif.g08.bks.cpg/sg73_12_cif.got.tgz:23918.got - 2010.06.03 17:35:07.
