data_PCOD9533834
_publ_section_title
;
Structure prediction by ZEFSAII (Michael W. Deem and Ramdas Pophale) SiO2 
 PCOD9533834
Probable space group: I M M A
;
_chemical_formula_sum "Si O2"
_cell_formula_units_Z 44
_cell_length_a 30.641454
_cell_length_b 7.814800
_cell_length_c 6.991722
_cell_angle_alpha 90.000000
_cell_angle_beta 90.000000
_cell_angle_gamma 90.000000
_cell_volume 1674.215619
_symmetry_space_group_name_H-M "I M M A"
_symmetry_group_IT_number 74
_symmetry_cell_setting 'orthorhombic'
loop_
_space_group_symop_operation_xyz
x,y,z
-x,1/2-y,z
x,-y,-z
-x,1/2+y,-z
-x,-y,-z
x,1/2+y,-z
-x,y,z
x,1/2-y,z
1/2+x,1/2+y,1/2+z
1/2-x,-y,1/2+z
1/2+x,1/2-y,1/2-z
1/2-x,y,1/2-z
1/2-x,1/2-y,1/2-z
1/2+x,y,1/2-z
1/2-x,1/2+y,1/2+z
1/2+x,-y,1/2+z
loop_
_atom_site_type_symbol
_atom_site_label
_atom_site_fract_x
_atom_site_fract_y
_atom_site_fract_z
Si Si1 0.686823 0.554174 0.226907
Si Si2 0.094583 0.948212 0.722817
Si Si3 0.750000 0.750000 0.750000
Si Si4 0.000000 0.452758 0.724988
O O1 0.702437 0.750000 0.237033
O O2 0.636635 0.549365 0.295025
O O3 0.715544 0.403140 0.315289
O O4 0.686839 0.500000 0.000000
O O5 0.105550 0.750000 0.736009
O O6 0.091378 0.000000 0.500000
O O7 0.046004 0.977549 0.800221
O O8 0.000000 0.500000 0.500000
O O9 0.000000 0.250000 0.745018
#
# Coordination Sequence:
#
# PCOD9533834 Si02
#       4
#    16  16   4   8
#     4  11  20  35  52  71  99 131 169 211 251 296
#     4  10  16  26  40  60  89 123 159 194 233 284
#     4  12  22  36  52  74  92 132 178 208 256 298
#     4  10  16  22  34  58  84 120 160 186 225 281
#
# _framework density 26.280964000000001
#
# number of rings (size 3 to 8) (size 9 to 14) (size 15 to 20)
#    0.000    1.455    3.636    9.818    0.000    0.000 
#    0.000    0.000    0.000    0.000    0.000    0.000 
#    0.000    0.000    0.000    6.545    0.000    3.273 
#
# Total GULP energy -122628.858137 kJ/mol
# GULP energy per Si atom -5574.039006 kJ/mol
# Density = 2.622115 g / cm^3
# Si number density = 26.280964 Si / 1000 Ang^3
#
#
#
# Elastic Constant Matrix: (Units=GPa)
#
#
# Indices 1 2 3 4 5 6 
#
# 1 251.7233 78.9906 -9.6726 0.0000 0.0000 0.0000
# 2 78.9906 292.2920 5.6524 0.0000 0.0000 0.0000
# 3 -9.6726 5.6524 114.1205 0.0000 0.0000 0.0000
# 4 0.0000 0.0000 0.0000 -0.1193 0.0000 0.0000
# 5 0.0000 0.0000 0.0000 0.0000 -18.3600 0.0000
# 6 0.0000 0.0000 0.0000 0.0000 0.0000 16.9983
#
#
#
# Elastic Compliance Matrix: (Units=1/GPa)
#
#
# Indices 1 2 3 4 5 6 
#
# 1 0.004362 -0.001187 0.000428 0.000000 0.000000 0.000000
# 2 -0.001187 0.003748 -0.000286 0.000000 0.000000 0.000000
# 3 0.000428 -0.000286 0.008813 0.000002 0.000000 0.000000
# 4 0.000000 0.000000 0.000002 -8.379534 -0.000013 -0.000004
# 5 0.000000 0.000000 0.000000 -0.000013 -0.054466 0.000000
# 6 0.000000 0.000000 0.000000 -0.000004 0.000000 0.058830
#
#
# Mechanical properties :
#
#
# Convention : Reuss Voigt Hill
#
# Bulk Modulus (GPa) = 67.41815 89.78626 78.60220
# Shear Modulus (GPa) = -0.59872 38.58148 18.99138
#
# Velocity S-wave (km/s) = -0.47782 3.83566 2.69109
# Velocity P-wave (km/s) = 5.04025 7.33856 6.29518
#
# Compressibility (1/GPa) = 0.01483280
#
# Stress axis : x y z
#
# Youngs Moduli (GPa) = 229.27616 266.84128 113.46663
#
# Poissons Ratio (x) = 0.31673 -0.04862
# Poissons Ratio (y) = 0.27215 0.03248
# Poissons Ratio (z) = -0.09824 0.07638
#
# Static dielectric constant tensor:
#      x y z
#    x 2.121730 0.000000 0.000000 
#    y 0.000000 1.921630 0.000000 
#    z 0.000000 0.000000 2.464260 
# 
# From -- ./inp_files/15638.got.cif
#   From: 2010.05.17/outbox.cif.g08.bks.cpg/sg74_8_cif.got.tgz:15638.got - 2010.06.03 17:57:02.
