data_PCOD9533285
_publ_section_title
;
Structure prediction by ZEFSAII (Michael W. Deem and Ramdas Pophale) SiO2 
 PCOD9533285
Probable space group: I B C A 
;
_chemical_formula_sum "Si O2"
_cell_formula_units_Z 112
_cell_length_a 11.800859
_cell_length_b 29.671521
_cell_length_c 13.483750
_cell_angle_alpha 90.000000
_cell_angle_beta 90.000000
_cell_angle_gamma 90.000000
_cell_volume 4721.327453
_symmetry_space_group_name_H-M "I B C A "
_symmetry_group_IT_number 73
_symmetry_cell_setting 'orthorhombic'
loop_
_space_group_symop_operation_xyz
x,y,z
-x,1/2-y,z
x,-y,1/2-z
1/2-x,y,-z
-x,-y,-z
x,1/2+y,-z
-x,y,1/2+z
1/2+x,-y,z
1/2+x,1/2+y,1/2+z
1/2-x,-y,1/2+z
1/2+x,1/2-y,-z
-x,1/2+y,1/2-z
1/2-x,1/2-y,1/2-z
1/2+x,y,1/2-z
1/2-x,1/2+y,z
x,1/2-y,1/2+z
loop_
_atom_site_type_symbol
_atom_site_label
_atom_site_fract_x
_atom_site_fract_y
_atom_site_fract_z
Si Si1 0.785250 0.328181 0.891848
Si Si2 0.084885 0.789683 0.306019
Si Si3 0.280192 0.610988 0.296503
Si Si4 0.272902 0.033358 0.169977
Si Si5 0.053272 0.325951 0.891477
Si Si6 0.078689 0.456467 0.511914
Si Si7 0.947668 0.867245 0.408424
O O1 0.699266 0.287154 0.869627
O O2 0.752650 0.359830 0.800276
O O3 0.918264 0.320387 0.887675
O O4 0.750000 0.346551 0.000000
O O5 0.105237 0.790919 0.187249
O O6 0.000000 0.750000 0.329531
O O7 0.021176 0.836885 0.332760
O O8 0.293731 0.562575 0.251247
O O9 0.391015 0.627861 0.351651
O O10 0.169940 0.614927 0.365257
O O11 0.175041 0.025670 0.088290
O O12 0.330882 0.000000 0.250000
O O13 0.368047 0.054022 0.096931
O O14 0.080300 0.330375 0.006555
O O15 0.000000 0.500000 0.500000
O O16 0.019023 0.410592 0.552530
#
# Coordination Sequence:
#
# PCOD9533285 Si02
#       7
#    16  16  16  16  16  16  16
#     4  11  22  44  75 104 144 194 254 307 376 459
#     4  11  26  46  73 111 151 196 252 321 390 464
#     4  11  25  43  71 108 149 198 249 314 392 468
#     4  11  26  45  69 106 155 197 259 328 395 468
#     4  11  24  44  72 103 145 195 247 312 378 459
#     4  11  26  45  75 108 148 206 264 319 397 474
#     4  12  24  46  76 107 152 197 257 319 390 470
#
# _framework density 23.722142000000002
#
# number of rings (size 3 to 8) (size 9 to 14) (size 15 to 20)
#    0.000    0.857    2.857    3.857    4.000    2.857 
#    0.000    0.000    0.000    0.000    0.000    0.000 
#    0.000    0.000    0.000    0.000    0.000    0.000 
#
# Total GULP energy -312405.198735 kJ/mol
# GULP energy per Si atom -5578.664263 kJ/mol
# Density = 2.366815 g / cm^3
# Si number density = 23.722142 Si / 1000 Ang^3
#
#
#
# Elastic Constant Matrix: (Units=GPa)
#
#
# Indices 1 2 3 4 5 6 
#
# 1 115.0167 19.8252 48.7990 -0.0002 0.0002 0.0001
# 2 19.8252 54.5861 8.2399 -0.0004 0.0002 0.0001
# 3 48.7990 8.2399 135.8332 -0.0010 0.0006 0.0004
# 4 -0.0002 -0.0004 -0.0010 10.8299 0.0002 0.0002
# 5 0.0002 0.0002 0.0006 0.0002 45.8436 0.0001
# 6 0.0001 0.0001 0.0004 0.0002 0.0001 41.6405
#
#
#
# Elastic Compliance Matrix: (Units=1/GPa)
#
#
# Indices 1 2 3 4 5 6 
#
# 1 0.010843 -0.003381 -0.003690 0.000000 0.000000 0.000000
# 2 -0.003381 0.019543 0.000029 0.000001 0.000000 0.000000
# 3 -0.003690 0.000029 0.008686 0.000001 0.000000 0.000000
# 4 0.000000 0.000001 0.000001 0.092337 0.000000 0.000000
# 5 0.000000 0.000000 0.000000 0.000000 0.021813 0.000000
# 6 0.000000 0.000000 0.000000 0.000000 0.000000 0.024015
#
#
# Mechanical properties :
#
#
# Convention : Reuss Voigt Hill
#
# Bulk Modulus (GPa) = 40.01959 51.01825 45.51892
# Shear Modulus (GPa) = 25.04371 34.90094 29.97232
#
# Velocity S-wave (km/s) = 3.25269 3.83983 3.55839
# Velocity P-wave (km/s) = 5.56897 6.41969 6.00940
#
# Compressibility (1/GPa) = 0.02498776
#
# Stress axis : x y z
#
# Youngs Moduli (GPa) = 92.22659 51.16861 115.12835
#
# Poissons Ratio (x) = 0.17300 0.42485
# Poissons Ratio (y) = 0.31182 -0.00335
# Poissons Ratio (z) = 0.34034 -0.00149
#
# Static dielectric constant tensor:
#      x y z
#    x 18.365510 0.000080 -0.000020 
#    y 0.000080 2.218030 0.000000 
#    z -0.000020 0.000000 1.896550 
# 
# From -- ./inp_files/16335.got.cif
#   From: 2010.05.17/outbox.cif.g08.bks.cpg/sg73_9_cif.got.tgz:16335.got - 2010.06.03 17:35:07.
