data_PCOD9533287
_publ_section_title
;
Structure prediction by ZEFSAII (Michael W. Deem and Ramdas Pophale) SiO2 
 PCOD9533287
Probable space group: I B C A 
;
_chemical_formula_sum "Si O2"
_cell_formula_units_Z 104
_cell_length_a 21.657013
_cell_length_b 21.050958
_cell_length_c 9.509713
_cell_angle_alpha 90.000000
_cell_angle_beta 90.000000
_cell_angle_gamma 90.000000
_cell_volume 4335.486440
_symmetry_space_group_name_H-M "I B C A "
_symmetry_group_IT_number 73
_symmetry_cell_setting 'orthorhombic'
loop_
_space_group_symop_operation_xyz
x,y,z
-x,1/2-y,z
x,-y,1/2-z
1/2-x,y,-z
-x,-y,-z
x,1/2+y,-z
-x,y,1/2+z
1/2+x,-y,z
1/2+x,1/2+y,1/2+z
1/2-x,-y,1/2+z
1/2+x,1/2-y,-z
-x,1/2+y,1/2-z
1/2-x,1/2-y,1/2-z
1/2+x,y,1/2-z
1/2-x,1/2+y,z
x,1/2-y,1/2+z
loop_
_atom_site_type_symbol
_atom_site_label
_atom_site_fract_x
_atom_site_fract_y
_atom_site_fract_z
Si Si1 0.070702 0.062980 0.838339
Si Si2 0.130138 0.449390 0.633168
Si Si3 0.789618 0.338510 0.144206
Si Si4 0.054355 0.297000 0.327661
Si Si5 0.750000 0.001755 0.000000
Si Si6 0.185255 0.388515 0.156450
Si Si7 0.868188 0.770156 0.441161
O O1 0.032822 0.129279 0.839861
O O2 0.133345 0.091484 0.768623
O O3 0.051735 0.000000 0.750000
O O4 0.086727 0.044603 0.997845
O O5 0.110779 0.500000 0.750000
O O6 0.144659 0.376116 0.666643
O O7 0.201314 0.465503 0.594066
O O8 0.742749 0.356470 0.266756
O O9 0.812606 0.266688 0.134703
O O10 0.750000 0.349277 0.000000
O O11 0.109709 0.274508 0.431683
O O12 0.077133 0.281537 0.170576
O O13 0.000000 0.250000 0.365751
O O14 0.707665 0.046451 0.907521
O O15 0.157181 0.341675 0.038395
#
# Coordination Sequence:
#
# PCOD9533287 Si02
#       7
#    16  16  16  16   8  16  16
#     4  11  22  45  67 101 137 182 230 280 347 413
#     4  12  22  35  59  94 138 185 223 262 317 407
#     4  12  21  36  58  94 145 184 223 264 325 410
#     4  11  25  49  76  97 128 178 237 308 366 411
#     4  12  22  30  52  90 140 194 222 252 320 406
#     4  11  23  34  58  94 143 189 222 264 325 416
#     4  11  25  42  66  99 131 179 236 285 347 411
#
# _framework density 23.988081999999999
#
# number of rings (size 3 to 8) (size 9 to 14) (size 15 to 20)
#    0.000    0.615    6.923    1.846    3.231    0.000 
#    0.000    0.000    0.000   11.077    0.000    0.000 
#    0.000    0.000    0.000    0.000    0.000    0.000 
#
# Total GULP energy -290580.662264 kJ/mol
# GULP energy per Si atom -5588.089659 kJ/mol
# Density = 2.393348 g / cm^3
# Si number density = 23.988082 Si / 1000 Ang^3
#
#
#
# Elastic Constant Matrix: (Units=GPa)
#
#
# Indices 1 2 3 4 5 6 
#
# 1 30.6761 14.2271 -1.3399 0.0000 0.0000 0.0000
# 2 14.2271 133.3352 38.6714 0.0000 0.0000 0.0000
# 3 -1.3399 38.6714 75.0082 0.0000 0.0000 0.0000
# 4 0.0000 0.0000 0.0000 28.0271 0.0000 0.0000
# 5 0.0000 0.0000 0.0000 0.0000 6.9847 0.0000
# 6 0.0000 0.0000 0.0000 0.0000 0.0000 28.9675
#
#
#
# Elastic Compliance Matrix: (Units=1/GPa)
#
#
# Indices 1 2 3 4 5 6 
#
# 1 0.034856 -0.004585 0.002987 0.000000 0.000000 0.000000
# 2 -0.004585 0.009422 -0.004939 0.000000 0.000000 0.000000
# 3 0.002987 -0.004939 0.015932 0.000000 0.000000 0.000000
# 4 0.000000 0.000000 0.000000 0.035680 0.000000 0.000000
# 5 0.000000 0.000000 0.000000 0.000000 0.143169 0.000000
# 6 0.000000 0.000000 0.000000 0.000000 0.000000 0.034521
#
#
# Mechanical properties :
#
#
# Convention : Reuss Voigt Hill
#
# Bulk Modulus (GPa) = 21.21652 38.01520 29.61586
# Shear Modulus (GPa) = 16.53620 25.29326 20.91473
#
# Velocity S-wave (km/s) = 2.62840 3.25069 2.95596
# Velocity P-wave (km/s) = 4.25148 5.47460 4.90134
#
# Compressibility (1/GPa) = 0.04713309
#
# Stress axis : x y z
#
# Youngs Moduli (GPa) = 28.68966 106.13736 62.76752
#
# Poissons Ratio (x) = 0.48668 -0.18747
# Poissons Ratio (y) = 0.13155 0.31003
# Poissons Ratio (z) = -0.08569 0.52426
#
# Static dielectric constant tensor:
#      x y z
#    x 1.942260 0.000000 0.000000 
#    y 0.000000 2.000950 0.000000 
#    z 0.000000 0.000000 1.918650 
# 
# From -- ./inp_files/7883.got.cif
#   From: 2010.05.17/outbox.cif.g08.bks.cpg/sg73_4_cif.got.tgz:7883.got - 2010.06.03 17:35:07.
