data_PCOD9534446
_publ_section_title
;
Structure prediction by ZEFSAII (Michael W. Deem and Ramdas Pophale) SiO2 
 PCOD9534446
Probable space group: I M M A
;
_chemical_formula_sum "Si O2"
_cell_formula_units_Z 80
_cell_length_a 26.911402
_cell_length_b 8.612130
_cell_length_c 19.779132
_cell_angle_alpha 90.000000
_cell_angle_beta 90.000000
_cell_angle_gamma 90.000000
_cell_volume 4584.100490
_symmetry_space_group_name_H-M "I M M A"
_symmetry_group_IT_number 74
_symmetry_cell_setting 'orthorhombic'
loop_
_space_group_symop_operation_xyz
x,y,z
-x,1/2-y,z
x,-y,-z
-x,1/2+y,-z
-x,-y,-z
x,1/2+y,-z
-x,y,z
x,1/2-y,z
1/2+x,1/2+y,1/2+z
1/2-x,-y,1/2+z
1/2+x,1/2-y,1/2-z
1/2-x,y,1/2-z
1/2-x,1/2-y,1/2-z
1/2+x,y,1/2-z
1/2-x,1/2+y,1/2+z
1/2+x,-y,1/2+z
loop_
_atom_site_type_symbol
_atom_site_label
_atom_site_fract_x
_atom_site_fract_y
_atom_site_fract_z
Si Si1 0.248803 0.936139 0.076645
Si Si2 0.641562 0.064324 0.923826
Si Si3 0.556498 0.062633 0.172583
Si Si4 0.555894 0.560941 0.671404
Si Si5 0.645693 0.563554 0.576366
O O1 0.244542 0.750000 0.075782
O O2 0.303345 0.979367 0.104081
O O3 0.198417 0.006539 0.106534
O O4 0.249622 0.000000 0.000000
O O5 0.639925 0.250000 0.927494
O O6 0.597781 0.003863 0.876740
O O7 0.636670 0.000000 0.000000
O O8 0.500000 0.016320 0.154012
O O9 0.558528 0.250000 0.170206
O O10 0.564842 0.015173 0.250693
O O11 0.500000 0.510828 0.652030
O O12 0.555886 0.750000 0.670362
O O13 0.599317 0.509455 0.621487
O O14 0.641169 0.500000 0.500000
O O15 0.646200 0.750000 0.573613
#
# Coordination Sequence:
#
# PCOD9534446 Si02
#       5
#    16  16  16  16  16
#     4   9  17  30  47  68  96 127 157 192 236 282
#     4  10  20  33  51  74  98 126 159 196 238 283
#     4   9  18  34  54  72  93 125 162 199 239 281
#     4   8  16  32  51  70  95 128 163 197 236 283
#     4  10  18  29  49  74  98 126 160 198 238 281
#
# _framework density 17.451623999999999
#
# number of rings (size 3 to 8) (size 9 to 14) (size 15 to 20)
#    0.000    2.800    0.000    4.200    0.000    3.600 
#    0.000    3.000    0.000   10.200    0.000    0.000 
#    0.000    0.000    0.000    0.000    0.000    0.000 
#
# Total GULP energy -222830.497965 kJ/mol
# GULP energy per Si atom -5570.762449 kJ/mol
# Density = 1.741190 g / cm^3
# Si number density = 17.451624 Si / 1000 Ang^3
#
#
#
# Elastic Constant Matrix: (Units=GPa)
#
#
# Indices 1 2 3 4 5 6 
#
# 1 213.8642 44.8894 96.4249 0.0000 0.0000 0.0000
# 2 44.8894 37.6344 22.2927 0.0000 0.0000 0.0000
# 3 96.4249 22.2927 66.4760 0.0000 0.0000 0.0000
# 4 0.0000 0.0000 0.0000 18.6138 0.0000 0.0000
# 5 0.0000 0.0000 0.0000 0.0000 -12.0983 0.0000
# 6 0.0000 0.0000 0.0000 0.0000 0.0000 26.9231
#
#
#
# Elastic Compliance Matrix: (Units=1/GPa)
#
#
# Indices 1 2 3 4 5 6 
#
# 1 0.014541 -0.006052 -0.019062 0.000000 0.000000 0.000000
# 2 -0.006052 0.035677 -0.003185 0.000000 0.000000 0.000000
# 3 -0.019062 -0.003185 0.043761 0.000000 0.000000 0.000000
# 4 0.000000 0.000000 0.000000 0.053724 0.000000 0.000000
# 5 0.000000 0.000000 0.000000 0.000000 -0.082656 0.000000
# 6 0.000000 0.000000 0.000000 0.000000 0.000000 0.037143
#
#
# Mechanical properties :
#
#
# Convention : Reuss Voigt Hill
#
# Bulk Modulus (GPa) = 26.75235 71.68763 49.21999
# Shear Modulus (GPa) = 29.19744 16.97889 23.08816
#
# Velocity S-wave (km/s) = 4.09473 3.12254 3.64123
# Velocity P-wave (km/s) = 6.14154 7.35985 6.77812
#
# Compressibility (1/GPa) = 0.03737989
#
# Stress axis : x y z
#
# Youngs Moduli (GPa) = 68.77260 28.02895 22.85153
#
# Poissons Ratio (x) = 0.16965 0.43559
# Poissons Ratio (y) = 0.41625 0.07278
# Poissons Ratio (z) = 1.31093 0.08928
#
# Static dielectric constant tensor:
#      x y z
#    x 1.632450 0.000000 0.000000 
#    y 0.000000 1.598260 0.000000 
#    z 0.000000 0.000000 1.552150 
# 
# From -- ./inp_files/46480.got.cif
#   From: 2010.05.17/outbox.cif.g08.bks.cpg/sg74_24_cif.got.tgz:46480.got - 2010.06.03 17:57:02.
