data_PCOD9534156
_publ_section_title
;
Structure prediction by ZEFSAII (Michael W. Deem and Ramdas Pophale) SiO2 
 PCOD9534156
Probable space group: I M M A
;
_chemical_formula_sum "Si O2"
_cell_formula_units_Z 96
_cell_length_a 18.890405
_cell_length_b 17.926831
_cell_length_c 17.460578
_cell_angle_alpha 90.000000
_cell_angle_beta 90.000000
_cell_angle_gamma 90.000000
_cell_volume 5912.939147
_symmetry_space_group_name_H-M "I M M A"
_symmetry_group_IT_number 74
_symmetry_cell_setting 'orthorhombic'
loop_
_space_group_symop_operation_xyz
x,y,z
-x,1/2-y,z
x,-y,-z
-x,1/2+y,-z
-x,-y,-z
x,1/2+y,-z
-x,y,z
x,1/2-y,z
1/2+x,1/2+y,1/2+z
1/2-x,-y,1/2+z
1/2+x,1/2-y,1/2-z
1/2-x,y,1/2-z
1/2-x,1/2-y,1/2-z
1/2+x,y,1/2-z
1/2-x,1/2+y,1/2+z
1/2+x,-y,1/2+z
loop_
_atom_site_type_symbol
_atom_site_label
_atom_site_fract_x
_atom_site_fract_y
_atom_site_fract_z
Si Si1 0.316729 0.837453 0.192255
Si Si2 0.077803 0.837770 0.886846
Si Si3 0.809711 0.442796 0.192269
Si Si4 0.918687 0.570848 0.213193
Si Si5 0.387418 0.081902 0.534659
Si Si6 0.767684 0.952344 0.430933
O O1 0.315589 0.750000 0.172396
O O2 0.250000 0.851801 0.250000
O O3 0.386073 0.860575 0.239773
O O4 0.309528 0.891646 0.118862
O O5 0.083336 0.750000 0.875432
O O6 0.140895 0.881036 0.845653
O O7 0.000000 0.863536 0.859192
O O8 0.082271 0.858184 0.976518
O O9 0.750000 0.414566 0.250000
O O10 0.864683 0.502362 0.228868
O O11 0.766631 0.488712 0.128214
O O12 0.912978 0.585575 0.121827
O O13 0.000000 0.555379 0.232414
O O14 0.302215 0.087775 0.535013
O O15 0.404971 0.000000 0.500000
O O16 0.802251 0.000000 0.500000
#
# Coordination Sequence:
#
# PCOD9534156 Si02
#       6
#    16  16  16  16  16  16
#     4  11  21  35  53  78 113 146 178 221 273 320
#     4  11  23  35  49  77 114 145 174 216 267 312
#     4  11  19  35  55  76 104 140 184 218 255 310
#     4  11  20  32  54  81 108 143 182 214 263 326
#     4  10  18  31  52  78 109 146 178 208 249 320
#     4  10  17  34  54  78  99 138 182 221 251 310
#
# _framework density 16.235581
#
# number of rings (size 3 to 8) (size 9 to 14) (size 15 to 20)
#    0.000    1.333   10.000    1.000    0.000    2.667 
#    0.000    0.000    0.000    0.500    0.000    0.000 
#    0.000    0.000    0.000    0.000    0.000    0.000 
#
# Total GULP energy -267586.506542 kJ/mol
# GULP energy per Si atom -5574.718886 kJ/mol
# Density = 1.619863 g / cm^3
# Si number density = 16.235581 Si / 1000 Ang^3
#
#
#
# Elastic Constant Matrix: (Units=GPa)
#
#
# Indices 1 2 3 4 5 6 
#
# 1 80.4173 34.0223 45.0581 0.0000 0.0000 0.0000
# 2 34.0223 77.4794 45.3214 0.0000 0.0000 0.0000
# 3 45.0581 45.3214 73.5888 0.0000 0.0000 0.0000
# 4 0.0000 0.0000 0.0000 26.1308 0.0000 0.0000
# 5 0.0000 0.0000 0.0000 0.0000 13.9088 0.0000
# 6 0.0000 0.0000 0.0000 0.0000 0.0000 8.6327
#
#
#
# Elastic Compliance Matrix: (Units=1/GPa)
#
#
# Indices 1 2 3 4 5 6 
#
# 1 0.019218 -0.002432 -0.010269 0.000000 0.000000 0.000000
# 2 -0.002432 0.020482 -0.011126 0.000000 0.000000 0.000000
# 3 -0.010269 -0.011126 0.026729 0.000000 0.000000 0.000000
# 4 0.000000 0.000000 0.000000 0.038269 0.000000 0.000000
# 5 0.000000 0.000000 0.000000 0.000000 0.071897 0.000000
# 6 0.000000 0.000000 0.000000 0.000000 0.000000 0.115839
#
#
# Mechanical properties :
#
#
# Convention : Reuss Voigt Hill
#
# Bulk Modulus (GPa) = 53.26041 53.36544 53.31292
# Shear Modulus (GPa) = 14.43644 16.87336 15.65490
#
# Velocity S-wave (km/s) = 2.98516 3.22729 3.10858
# Velocity P-wave (km/s) = 6.69010 6.84310 6.76703
#
# Compressibility (1/GPa) = 0.01877567
#
# Stress axis : x y z
#
# Youngs Moduli (GPa) = 52.03475 48.82245 37.41272
#
# Poissons Ratio (x) = 0.11873 0.38421
# Poissons Ratio (y) = 0.12654 0.41624
# Poissons Ratio (z) = 0.53436 0.54318
#
# Static dielectric constant tensor:
#      x y z
#    x 1.558320 0.000000 0.000000 
#    y 0.000000 1.553880 0.000000 
#    z 0.000000 0.000000 1.569020 
# 
# From -- ./inp_files/44106.got.cif
#   From: 2010.05.17/outbox.cif.g08.bks.cpg/sg74_23_cif.got.tgz:44106.got - 2010.06.03 17:57:02.
