data_PCOD9534001
_publ_section_title
;
Structure prediction by ZEFSAII (Michael W. Deem and Ramdas Pophale) SiO2 
 PCOD9534001
Probable space group: I M M A
;
_chemical_formula_sum "Si O2"
_cell_formula_units_Z 96
_cell_length_a 29.291729
_cell_length_b 7.880427
_cell_length_c 31.988226
_cell_angle_alpha 90.000000
_cell_angle_beta 90.000000
_cell_angle_gamma 90.000000
_cell_volume 7383.884819
_symmetry_space_group_name_H-M "I M M A"
_symmetry_group_IT_number 74
_symmetry_cell_setting 'orthorhombic'
loop_
_space_group_symop_operation_xyz
x,y,z
-x,1/2-y,z
x,-y,-z
-x,1/2+y,-z
-x,-y,-z
x,1/2+y,-z
-x,y,z
x,1/2-y,z
1/2+x,1/2+y,1/2+z
1/2-x,-y,1/2+z
1/2+x,1/2-y,1/2-z
1/2-x,y,1/2-z
1/2-x,1/2-y,1/2-z
1/2+x,y,1/2-z
1/2-x,1/2+y,1/2+z
1/2+x,-y,1/2+z
loop_
_atom_site_type_symbol
_atom_site_label
_atom_site_fract_x
_atom_site_fract_y
_atom_site_fract_z
Si Si1 0.805821 0.953220 0.453557
Si Si2 0.862302 0.549431 0.686491
Si Si3 0.049975 0.951820 0.634011
Si Si4 0.769280 0.941194 0.633206
Si Si5 0.411269 0.452205 0.953911
Si Si6 0.232724 0.750000 0.182044
Si Si7 0.174943 0.250000 0.738380
O O1 0.805866 0.750000 0.448749
O O2 0.858653 0.014612 0.450484
O O3 0.789771 0.000000 0.500000
O O4 0.777121 0.030711 0.415902
O O5 0.866291 0.750000 0.698101
O O6 0.907465 0.488953 0.661869
O O7 0.819309 0.538323 0.654695
O O8 0.851360 0.419888 0.723907
O O9 0.048617 0.750000 0.640444
O O10 0.000000 0.023247 0.644393
O O11 0.060725 0.981355 0.585300
O O12 0.753663 0.750000 0.641881
O O13 0.737309 0.083387 0.653493
O O14 0.410419 0.250000 0.951113
O O15 0.428513 0.500000 0.000000
O O16 0.190313 0.750000 0.213574
O O17 0.278151 0.750000 0.211217
#
# Coordination Sequence:
#
# PCOD9534001 Si02
#       7
#    16  16  16  16  16   8   8
#     4  10  18  27  40  58  79 102 134 167 199 241
#     4   9  18  30  45  60  78 101 127 158 200 246
#     4  10  20  32  44  57  75  98 128 167 208 248
#     4  10  17  27  44  60  80 104 126 158 198 242
#     4  10  20  30  43  56  72  96 128 168 206 249
#     4   9  18  30  42  64  82  98 122 156 198 247
#     4   9  18  30  47  60  80 100 121 156 198 251
#
# _framework density 13.001286
#
# number of rings (size 3 to 8) (size 9 to 14) (size 15 to 20)
#    0.000    2.333    2.500    1.000    1.167    2.667 
#    0.000    3.333    0.000    0.000    0.000    0.000 
#    0.000    0.000    0.000    0.000    0.000    0.000 
#
# Total GULP energy -267539.478402 kJ/mol
# GULP energy per Si atom -5573.739133 kJ/mol
# Density = 1.297169 g / cm^3
# Si number density = 13.001286 Si / 1000 Ang^3
#
#
#
# Elastic Constant Matrix: (Units=GPa)
#
#
# Indices 1 2 3 4 5 6 
#
# 1 40.8365 24.7405 39.4234 0.0000 0.0000 0.0000
# 2 24.7405 64.7032 37.9267 0.0000 0.0000 0.0000
# 3 39.4234 37.9267 71.6323 0.0000 0.0000 0.0000
# 4 0.0000 0.0000 0.0000 17.3961 0.0000 0.0000
# 5 0.0000 0.0000 0.0000 0.0000 20.7916 0.0000
# 6 0.0000 0.0000 0.0000 0.0000 0.0000 7.5067
#
#
#
# Elastic Compliance Matrix: (Units=1/GPa)
#
#
# Indices 1 2 3 4 5 6 
#
# 1 0.053179 -0.004609 -0.026827 0.000000 0.000000 0.000000
# 2 -0.004609 0.022810 -0.009540 0.000000 0.000000 0.000000
# 3 -0.026827 -0.009540 0.033776 0.000000 0.000000 0.000000
# 4 0.000000 0.000000 0.000000 0.057484 0.000000 0.000000
# 5 0.000000 0.000000 0.000000 0.000000 0.048096 0.000000
# 6 0.000000 0.000000 0.000000 0.000000 0.000000 0.133214
#
#
# Mechanical properties :
#
#
# Convention : Reuss Voigt Hill
#
# Bulk Modulus (GPa) = 35.95594 42.37256 39.16425
# Shear Modulus (GPa) = 11.36923 14.14429 12.75676
#
# Velocity S-wave (km/s) = 2.96035 3.30193 3.13580
# Velocity P-wave (km/s) = 6.27699 6.87014 6.58025
#
# Compressibility (1/GPa) = 0.02781181
#
# Stress axis : x y z
#
# Youngs Moduli (GPa) = 18.80437 43.84099 29.60672
#
# Poissons Ratio (x) = 0.20205 0.79427
# Poissons Ratio (y) = 0.08667 0.28246
# Poissons Ratio (z) = 0.50447 0.41826
#
# Static dielectric constant tensor:
#      x y z
#    x 1.413330 0.000000 0.000000 
#    y 0.000000 1.456110 0.000000 
#    z 0.000000 0.000000 1.444500 
# 
# From -- ./inp_files/64714.got.cif
#   From: 2010.05.17/outbox.cif.g08.bks.cpg/sg74_33_cif.got.tgz:64714.got - 2010.06.03 17:57:02.
