data_PCOD9534178
_publ_section_title
;
Structure prediction by ZEFSAII (Michael W. Deem and Ramdas Pophale) SiO2 
 PCOD9534178
Probable space group: I M M A
;
_chemical_formula_sum "Si O2"
_cell_formula_units_Z 104
_cell_length_a 33.370884
_cell_length_b 7.360122
_cell_length_c 21.435631
_cell_angle_alpha 90.000000
_cell_angle_beta 90.000000
_cell_angle_gamma 90.000000
_cell_volume 5264.886303
_symmetry_space_group_name_H-M "I M M A"
_symmetry_group_IT_number 74
_symmetry_cell_setting 'orthorhombic'
loop_
_space_group_symop_operation_xyz
x,y,z
-x,1/2-y,z
x,-y,-z
-x,1/2+y,-z
-x,-y,-z
x,1/2+y,-z
-x,y,z
x,1/2-y,z
1/2+x,1/2+y,1/2+z
1/2-x,-y,1/2+z
1/2+x,1/2-y,1/2-z
1/2-x,y,1/2-z
1/2-x,1/2-y,1/2-z
1/2+x,y,1/2-z
1/2-x,1/2+y,1/2+z
1/2+x,-y,1/2+z
loop_
_atom_site_type_symbol
_atom_site_label
_atom_site_fract_x
_atom_site_fract_y
_atom_site_fract_z
Si Si1 0.308652 0.033292 0.570396
Si Si2 0.342847 0.528640 0.179062
Si Si3 0.068091 0.470673 0.658823
Si Si4 0.455669 0.970512 0.298159
Si Si5 0.782721 0.532563 0.428678
Si Si6 0.500000 0.533726 0.071833
Si Si7 0.634564 0.028054 0.681276
O O1 0.306338 0.250000 0.578707
O O2 0.263025 0.962721 0.575052
O O3 0.338346 0.965930 0.623803
O O4 0.323063 0.000000 0.500000
O O5 0.340688 0.750000 0.179993
O O6 0.386257 0.471386 0.153766
O O7 0.309391 0.466297 0.129645
O O8 0.345370 0.474012 0.252242
O O9 0.069361 0.250000 0.658652
O O10 0.049042 0.519555 0.725298
O O11 0.039615 0.537423 0.604792
O O12 0.500000 0.031595 0.320615
O O13 0.456111 0.750000 0.302497
O O14 0.412231 0.028976 0.324947
O O15 0.797504 0.500000 0.500000
O O16 0.781334 0.750000 0.422515
O O17 0.500000 0.750000 0.082676
O O18 0.500000 0.500000 0.000000
O O19 0.633711 0.250000 0.682205
#
# Coordination Sequence:
#
# PCOD9534178 Si02
#       7
#    16  16  16  16  16   8  16
#     4   9  17  29  44  62  84 110 136 164 200 246
#     4   8  14  24  39  60  82 103 132 174 212 237
#     4   8  13  22  35  52  76 101 125 159 203 238
#     4   8  11  18  35  57  80 102 124 158 202 240
#     4   9  17  28  42  59  81 111 142 167 200 244
#     4  10  18  26  36  52  74 102 133 162 194 234
#     4   8  14  23  38  62  85 103 132 172 209 240
#
# _framework density 19.753513999999999
#
# number of rings (size 3 to 8) (size 9 to 14) (size 15 to 20)
#    0.000    3.538    0.769    1.846    0.000    1.231 
#    0.000    3.077    0.000    1.385    0.000    7.538 
#    0.000    0.000    0.000    0.000    0.000    0.000 
#
# Total GULP energy -289570.195061 kJ/mol
# GULP energy per Si atom -5568.657597 kJ/mol
# Density = 1.970855 g / cm^3
# Si number density = 19.753514 Si / 1000 Ang^3
#
#
#
# Elastic Constant Matrix: (Units=GPa)
#
#
# Indices 1 2 3 4 5 6 
#
# 1 149.0199 5.4901 117.0221 0.0000 0.0000 0.0000
# 2 5.4901 71.1801 1.5097 0.0000 0.0000 0.0000
# 3 117.0221 1.5097 153.6722 0.0000 0.0000 0.0000
# 4 0.0000 0.0000 0.0000 12.3167 0.0000 0.0000
# 5 0.0000 0.0000 0.0000 0.0000 27.4475 0.0000
# 6 0.0000 0.0000 0.0000 0.0000 0.0000 -9.1872
#
#
#
# Elastic Compliance Matrix: (Units=1/GPa)
#
#
# Indices 1 2 3 4 5 6 
#
# 1 0.016767 -0.001023 -0.012758 0.000000 0.000000 0.000000
# 2 -0.001023 0.014114 0.000640 0.000000 0.000000 0.000000
# 3 -0.012758 0.000640 0.016216 0.000000 0.000000 0.000000
# 4 0.000000 0.000000 0.000000 0.081190 0.000000 0.000000
# 5 0.000000 0.000000 0.000000 0.000000 0.036433 0.000000
# 6 0.000000 0.000000 0.000000 0.000000 0.000000 -0.108847
#
#
# Mechanical properties :
#
#
# Convention : Reuss Voigt Hill
#
# Bulk Modulus (GPa) = 48.03936 69.10178 58.57057
# Shear Modulus (GPa) = 56.12086 22.77209 39.44648
#
# Velocity S-wave (km/s) = 5.33594 3.39899 4.47356
# Velocity P-wave (km/s) = 7.89526 7.10367 7.50991
#
# Compressibility (1/GPa) = 0.02081627
#
# Stress axis : x y z
#
# Youngs Moduli (GPa) = 59.64240 70.85079 61.66681
#
# Poissons Ratio (x) = 0.07245 0.78673
# Poissons Ratio (y) = 0.06099 -0.03947
# Poissons Ratio (z) = 0.76091 -0.04535
#
# Static dielectric constant tensor:
#      x y z
#    x 1.710640 0.000000 0.000000 
#    y 0.000000 1.794240 0.000000 
#    z 0.000000 0.000000 1.651270 
# 
# From -- ./inp_files/47195.got.cif
#   From: 2010.05.17/outbox.cif.g08.bks.cpg/sg74_24_cif.got.tgz:47195.got - 2010.06.03 17:57:02.
