data_PCOD9534691
_publ_section_title
;
Structure prediction by ZEFSAII (Michael W. Deem and Ramdas Pophale) SiO2 
 PCOD9534691
Probable space group: I M M A
;
_chemical_formula_sum "Si O2"
_cell_formula_units_Z 100
_cell_length_a 7.666138
_cell_length_b 20.822324
_cell_length_c 30.316024
_cell_angle_alpha 90.000000
_cell_angle_beta 90.000000
_cell_angle_gamma 90.000000
_cell_volume 4839.250181
_symmetry_space_group_name_H-M "I M M A"
_symmetry_group_IT_number 74
_symmetry_cell_setting 'orthorhombic'
loop_
_space_group_symop_operation_xyz
x,y,z
-x,1/2-y,z
x,-y,-z
-x,1/2+y,-z
-x,-y,-z
x,1/2+y,-z
-x,y,z
x,1/2-y,z
1/2+x,1/2+y,1/2+z
1/2-x,-y,1/2+z
1/2+x,1/2-y,1/2-z
1/2-x,y,1/2-z
1/2-x,1/2-y,1/2-z
1/2+x,y,1/2-z
1/2-x,1/2+y,1/2+z
1/2+x,-y,1/2+z
loop_
_atom_site_type_symbol
_atom_site_label
_atom_site_fract_x
_atom_site_fract_y
_atom_site_fract_z
Si Si1 0.000000 0.750000 0.496899
Si Si2 0.708814 0.439094 0.052290
Si Si3 0.213145 0.320635 0.387633
Si Si4 0.708981 0.568245 0.394380
Si Si5 0.200925 0.533687 0.199910
Si Si6 0.292513 0.884212 0.798771
Si Si7 0.203939 0.144480 0.976244
O O1 0.155409 0.805976 0.495507
O O2 0.500000 0.438844 0.047654
O O3 0.769327 0.378476 0.081658
O O4 0.753567 0.502136 0.079844
O O5 0.785392 0.421600 0.004685
O O6 0.273216 0.250000 0.400744
O O7 0.266635 0.338324 0.337952
O O8 0.000000 0.319526 0.389385
O O9 0.500000 0.573403 0.391886
O O10 0.783250 0.563526 0.344570
O O11 0.762923 0.626098 0.426502
O O12 0.250000 0.551453 0.250000
O O13 0.220657 0.456386 0.196412
O O14 0.000000 0.549938 0.197271
O O15 0.500000 0.890720 0.802487
O O16 0.250000 0.860163 0.750000
O O17 0.000000 0.165417 0.976541
#
# Coordination Sequence:
#
# PCOD9534691 Si02
#       7
#     4  16  16  16  16  16  16
#     4  12  26  48  66  98 122 168 212 260 306 392
#     4  11  21  35  61  89 122 165 214 263 308 368
#     4   9  19  32  48  72 107 152 203 253 300 353
#     4  10  22  39  60  90 128 162 202 257 322 373
#     4  10  19  33  54  83 120 154 194 249 310 372
#     4  10  18  31  48  70  98 144 193 246 305 353
#     4  11  25  44  66  93 129 166 208 258 314 376
#
# _framework density 20.664358
#
# number of rings (size 3 to 8) (size 9 to 14) (size 15 to 20)
#    0.000    1.760    2.400    3.120    2.240    2.880 
#    0.000    0.000    0.000    5.280    0.000    0.560 
#    0.000    0.000    0.000    0.000    0.000    0.000 
#
# Total GULP energy -278550.884607 kJ/mol
# GULP energy per Si atom -5571.017692 kJ/mol
# Density = 2.061733 g / cm^3
# Si number density = 20.664358 Si / 1000 Ang^3
#
#
#
# Elastic Constant Matrix: (Units=GPa)
#
#
# Indices 1 2 3 4 5 6 
#
# 1 64.0296 3.5379 7.0690 0.0000 0.0000 0.0000
# 2 3.5379 24.7281 13.0742 0.0000 0.0000 0.0000
# 3 7.0690 13.0742 111.4177 0.0000 0.0000 0.0000
# 4 0.0000 0.0000 0.0000 8.6256 0.0000 0.0000
# 5 0.0000 0.0000 0.0000 0.0000 -13.5143 0.0000
# 6 0.0000 0.0000 0.0000 0.0000 0.0000 73.2232
#
#
#
# Elastic Compliance Matrix: (Units=1/GPa)
#
#
# Indices 1 2 3 4 5 6 
#
# 1 0.015807 -0.001846 -0.000786 0.000000 0.000000 0.000000
# 2 -0.001846 0.043330 -0.004967 0.000000 0.000000 0.000000
# 3 -0.000786 -0.004967 0.009608 0.000000 0.000000 0.000000
# 4 0.000000 0.000000 0.000000 0.115933 0.000000 0.000000
# 5 0.000000 0.000000 0.000000 0.000000 -0.073996 0.000000
# 6 0.000000 0.000000 0.000000 0.000000 0.000000 0.013657
#
#
# Mechanical properties :
#
#
# Convention : Reuss Voigt Hill
#
# Bulk Modulus (GPa) = 18.67557 27.50419 23.08988
# Shear Modulus (GPa) = 31.76881 25.43319 28.60100
#
# Velocity S-wave (km/s) = 3.92519 3.51205 3.72435
# Velocity P-wave (km/s) = 5.44059 5.45755 5.44907
#
# Compressibility (1/GPa) = 0.05354589
#
# Stress axis : x y z
#
# Youngs Moduli (GPa) = 63.26482 23.07853 104.07965
#
# Poissons Ratio (x) = 0.04260 0.08184
# Poissons Ratio (y) = 0.11677 0.51701
# Poissons Ratio (z) = 0.04974 0.11464
#
# Static dielectric constant tensor:
#      x y z
#    x 1.760030 0.000000 0.000000 
#    y 0.000000 1.722410 0.000000 
#    z 0.000000 0.000000 1.844610 
# 
# From -- ./inp_files/70557.got.cif
#   From: 2010.05.17/outbox.cif.g08.bks.cpg/sg74_36_cif.got.tgz:70557.got - 2010.06.03 17:57:02.
