data_PCOD9534683
_publ_section_title
;
Structure prediction by ZEFSAII (Michael W. Deem and Ramdas Pophale) SiO2 
 PCOD9534683
Probable space group: I M M A
;
_chemical_formula_sum "Si O2"
_cell_formula_units_Z 96
_cell_length_a 23.991694
_cell_length_b 8.739380
_cell_length_c 27.684051
_cell_angle_alpha 90.000000
_cell_angle_beta 90.000000
_cell_angle_gamma 90.000000
_cell_volume 5804.585033
_symmetry_space_group_name_H-M "I M M A"
_symmetry_group_IT_number 74
_symmetry_cell_setting 'orthorhombic'
loop_
_space_group_symop_operation_xyz
x,y,z
-x,1/2-y,z
x,-y,-z
-x,1/2+y,-z
-x,-y,-z
x,1/2+y,-z
-x,y,z
x,1/2-y,z
1/2+x,1/2+y,1/2+z
1/2-x,-y,1/2+z
1/2+x,1/2-y,1/2-z
1/2-x,y,1/2-z
1/2-x,1/2-y,1/2-z
1/2+x,y,1/2-z
1/2-x,1/2+y,1/2+z
1/2+x,-y,1/2+z
loop_
_atom_site_type_symbol
_atom_site_label
_atom_site_fract_x
_atom_site_fract_y
_atom_site_fract_z
Si Si1 0.219943 0.066951 0.948051
Si Si2 0.617225 0.433087 0.789926
Si Si3 0.213420 0.935095 0.353417
Si Si4 0.500000 0.566633 0.364192
Si Si5 0.815209 0.572587 0.797113
Si Si6 0.615107 0.927737 0.603843
Si Si7 0.000000 0.562606 0.249295
O O1 0.219182 0.250000 0.949938
O O2 0.263585 0.019146 0.906029
O O3 0.158970 0.008191 0.931707
O O4 0.234378 0.000000 0.000000
O O5 0.612727 0.250000 0.792526
O O6 0.651333 0.483361 0.837509
O O7 0.656467 0.477856 0.745220
O O8 0.555682 0.491394 0.776742
O O9 0.216734 0.750000 0.350765
O O10 0.256877 0.004588 0.315055
O O11 0.500000 0.750000 0.364426
O O12 0.444689 0.505538 0.390259
O O13 0.500000 0.516602 0.307370
O O14 0.809335 0.750000 0.783176
O O15 0.855705 0.564216 0.843556
O O16 0.609113 0.750000 0.590476
O O17 0.000000 0.750000 0.249084
#
# Coordination Sequence:
#
# PCOD9534683 Si02
#       7
#    16  16  16   8  16  16   8
#     4  10  20  36  55  75  95 121 157 204 256 304
#     4  10  18  31  47  68  97 131 166 198 234 280
#     4   9  19  32  49  70  95 125 159 197 242 294
#     4  11  19  31  50  72  97 134 176 210 238 276
#     4  10  19  29  44  68  99 130 162 198 237 281
#     4  10  20  33  49  71  99 133 167 204 243 288
#     4   9  18  29  47  70  97 134 172 204 231 267
#
# _framework density 16.538648999999999
#
# number of rings (size 3 to 8) (size 9 to 14) (size 15 to 20)
#    0.000    2.167    1.667    2.250    0.000    4.667 
#    0.000    0.833    0.000    0.000    0.000    0.583 
#    0.000    0.000    0.000    0.000    0.000    0.000 
#
# Total GULP energy -267696.062644 kJ/mol
# GULP energy per Si atom -5577.001305 kJ/mol
# Density = 1.650101 g / cm^3
# Si number density = 16.538649 Si / 1000 Ang^3
#
#
#
# Elastic Constant Matrix: (Units=GPa)
#
#
# Indices 1 2 3 4 5 6 
#
# 1 91.3670 13.0026 63.1895 0.0000 0.0000 0.0000
# 2 13.0026 22.5052 14.3279 0.0000 0.0000 0.0000
# 3 63.1895 14.3279 76.7868 0.0000 0.0000 0.0000
# 4 0.0000 0.0000 0.0000 20.6971 0.0000 0.0000
# 5 0.0000 0.0000 0.0000 0.0000 9.8055 0.0000
# 6 0.0000 0.0000 0.0000 0.0000 0.0000 12.4896
#
#
#
# Elastic Compliance Matrix: (Units=1/GPa)
#
#
# Indices 1 2 3 4 5 6 
#
# 1 0.025450 -0.001555 -0.020653 0.000000 0.000000 0.000000
# 2 -0.001555 0.050519 -0.008147 0.000000 0.000000 0.000000
# 3 -0.020653 -0.008147 0.031539 0.000000 0.000000 0.000000
# 4 0.000000 0.000000 0.000000 0.048316 0.000000 0.000000
# 5 0.000000 0.000000 0.000000 0.000000 0.101984 0.000000
# 6 0.000000 0.000000 0.000000 0.000000 0.000000 0.080067
#
#
# Mechanical properties :
#
#
# Convention : Reuss Voigt Hill
#
# Bulk Modulus (GPa) = 21.36830 41.29987 31.33409
# Shear Modulus (GPa) = 12.07192 15.27436 13.67314
#
# Velocity S-wave (km/s) = 2.70464 3.04230 2.87843
# Velocity P-wave (km/s) = 4.76463 6.11283 5.48035
#
# Compressibility (1/GPa) = 0.04679829
#
# Stress axis : x y z
#
# Youngs Moduli (GPa) = 39.29302 19.79437 31.70679
#
# Poissons Ratio (x) = 0.03078 0.65484
# Poissons Ratio (y) = 0.06111 0.25831
# Poissons Ratio (z) = 0.81152 0.16126
#
# Static dielectric constant tensor:
#      x y z
#    x 1.567430 0.000000 0.000000 
#    y 0.000000 1.555620 0.000000 
#    z 0.000000 0.000000 1.557920 
# 
# From -- ./inp_files/61929.got.cif
#   From: 2010.05.17/outbox.cif.g08.bks.cpg/sg74_31_cif.got.tgz:61929.got - 2010.06.03 17:57:02.
