data_PCOD9534697
_publ_section_title
;
Structure prediction by ZEFSAII (Michael W. Deem and Ramdas Pophale) SiO2 
 PCOD9534697
Probable space group: I M M A
;
_chemical_formula_sum "Si O2"
_cell_formula_units_Z 100
_cell_length_a 8.906809
_cell_length_b 29.215707
_cell_length_c 28.542033
_cell_angle_alpha 90.000000
_cell_angle_beta 90.000000
_cell_angle_gamma 90.000000
_cell_volume 7427.171352
_symmetry_space_group_name_H-M "I M M A"
_symmetry_group_IT_number 74
_symmetry_cell_setting 'orthorhombic'
loop_
_space_group_symop_operation_xyz
x,y,z
-x,1/2-y,z
x,-y,-z
-x,1/2+y,-z
-x,-y,-z
x,1/2+y,-z
-x,y,z
x,1/2-y,z
1/2+x,1/2+y,1/2+z
1/2-x,-y,1/2+z
1/2+x,1/2-y,1/2-z
1/2-x,y,1/2-z
1/2-x,1/2-y,1/2-z
1/2+x,y,1/2-z
1/2-x,1/2+y,1/2+z
1/2+x,-y,1/2+z
loop_
_atom_site_type_symbol
_atom_site_label
_atom_site_fract_x
_atom_site_fract_y
_atom_site_fract_z
Si Si1 0.182542 0.198695 0.570614
Si Si2 0.827308 0.962665 0.957871
Si Si3 0.321332 0.072155 0.700555
Si Si4 0.750000 0.250000 0.750000
Si Si5 0.177644 0.330972 0.675955
Si Si6 0.678812 0.967252 0.108314
Si Si7 0.680399 0.605676 0.025824
O O1 0.235596 0.250000 0.559529
O O2 0.222119 0.185434 0.623953
O O3 0.230859 0.157202 0.537235
O O4 0.000000 0.199333 0.569223
O O5 0.000000 0.955524 0.944431
O O6 0.735107 0.986351 0.916309
O O7 0.755776 0.917771 0.981051
O O8 0.824108 0.000000 0.000000
O O9 0.500000 0.070123 0.703032
O O10 0.250000 0.057871 0.750000
O O11 0.268642 0.124267 0.690718
O O12 0.259781 0.043033 0.656968
O O13 0.795439 0.210000 0.711876
O O14 0.000000 0.342582 0.675223
O O15 0.500000 0.967833 0.114672
O O16 0.713533 0.925953 0.071516
O O17 0.500000 0.604759 0.020128
#
# Coordination Sequence:
#
# PCOD9534697 Si02
#       7
#    16  16  16   4  16  16  16
#     4   9  16  28  45  62  80 108 142 179 220 264
#     4   9  17  28  43  65  89 109 132 166 212 260
#     4  12  24  35  47  62  83 110 143 179 223 268
#     4  12  22  28  52  66  78 104 150 196 238 276
#     4  11  21  34  47  60  79 105 142 187 232 271
#     4  10  18  31  49  66  85 107 137 175 217 264
#     4   9  16  27  45  65  84 109 140 173 215 264
#
# _framework density 13.464076
#
# number of rings (size 3 to 8) (size 9 to 14) (size 15 to 20)
#    0.000    1.920    3.200    2.640    0.000    3.200 
#    0.000    0.000    0.000    1.440    0.000    0.000 
#    0.000    0.000    0.000    0.000    0.000    0.800 
#
# Total GULP energy -278366.471016 kJ/mol
# GULP energy per Si atom -5567.329420 kJ/mol
# Density = 1.343343 g / cm^3
# Si number density = 13.464076 Si / 1000 Ang^3
#
#
#
# Elastic Constant Matrix: (Units=GPa)
#
#
# Indices 1 2 3 4 5 6 
#
# 1 61.3212 36.7533 45.4317 0.0000 0.0000 0.0000
# 2 36.7533 76.5041 54.5353 0.0000 0.0000 0.0000
# 3 45.4317 54.5353 75.0137 0.0000 0.0000 0.0000
# 4 0.0000 0.0000 0.0000 20.6229 0.0000 0.0000
# 5 0.0000 0.0000 0.0000 0.0000 20.3809 0.0000
# 6 0.0000 0.0000 0.0000 0.0000 0.0000 7.9679
#
#
#
# Elastic Compliance Matrix: (Units=1/GPa)
#
#
# Indices 1 2 3 4 5 6 
#
# 1 0.029914 -0.003023 -0.015920 0.000000 0.000000 0.000000
# 2 -0.003023 0.027438 -0.018116 0.000000 0.000000 0.000000
# 3 -0.015920 -0.018116 0.036143 0.000000 0.000000 0.000000
# 4 0.000000 0.000000 0.000000 0.048490 0.000000 0.000000
# 5 0.000000 0.000000 0.000000 0.000000 0.049066 0.000000
# 6 0.000000 0.000000 0.000000 0.000000 0.000000 0.125504
#
#
# Mechanical properties :
#
#
# Convention : Reuss Voigt Hill
#
# Bulk Modulus (GPa) = 51.60767 54.03105 52.81936
# Shear Modulus (GPa) = 12.59032 14.86893 13.72962
#
# Velocity S-wave (km/s) = 3.06127 3.32677 3.19677
# Velocity P-wave (km/s) = 7.13500 7.41441 7.27604
#
# Compressibility (1/GPa) = 0.01937697
#
# Stress axis : x y z
#
# Youngs Moduli (GPa) = 33.42937 36.44645 27.66764
#
# Poissons Ratio (x) = 0.11017 0.44046
# Poissons Ratio (y) = 0.10105 0.50124
# Poissons Ratio (z) = 0.53218 0.66028
#
# Static dielectric constant tensor:
#      x y z
#    x 1.456060 0.000000 0.000000 
#    y 0.000000 1.436210 0.000000 
#    z 0.000000 0.000000 1.426990 
# 
# From -- ./inp_files/65260.got.cif
#   From: 2010.05.17/outbox.cif.g08.bks.cpg/sg74_33_cif.got.tgz:65260.got - 2010.06.03 17:57:02.
