data_PCOD9534802
_publ_section_title
;
Structure prediction by ZEFSAII (Michael W. Deem and Ramdas Pophale) SiO2 
 PCOD9534802
Probable space group: I M M A
;
_chemical_formula_sum "Si O2"
_cell_formula_units_Z 72
_cell_length_a 14.935954
_cell_length_b 8.444983
_cell_length_c 30.682508
_cell_angle_alpha 90.000000
_cell_angle_beta 90.000000
_cell_angle_gamma 90.000000
_cell_volume 3870.103709
_symmetry_space_group_name_H-M "I M M A"
_symmetry_group_IT_number 74
_symmetry_cell_setting 'orthorhombic'
loop_
_space_group_symop_operation_xyz
x,y,z
-x,1/2-y,z
x,-y,-z
-x,1/2+y,-z
-x,-y,-z
x,1/2+y,-z
-x,y,z
x,1/2-y,z
1/2+x,1/2+y,1/2+z
1/2-x,-y,1/2+z
1/2+x,1/2-y,1/2-z
1/2-x,y,1/2-z
1/2-x,1/2-y,1/2-z
1/2+x,y,1/2-z
1/2-x,1/2+y,1/2+z
1/2+x,-y,1/2+z
loop_
_atom_site_type_symbol
_atom_site_label
_atom_site_fract_x
_atom_site_fract_y
_atom_site_fract_z
Si Si1 0.306051 0.941087 0.706720
Si Si2 0.689428 0.439806 0.549422
Si Si3 0.000000 0.557929 0.336671
Si Si4 0.310485 0.440443 0.873198
Si Si5 0.000000 0.438628 0.049931
Si Si6 0.500000 0.941649 0.737116
O O1 0.304364 0.750000 0.703190
O O2 0.250000 0.984491 0.750000
O O3 0.408615 0.992429 0.713553
O O4 0.257252 0.011747 0.665050
O O5 0.699253 0.500000 0.500000
O O6 0.686926 0.250000 0.548220
O O7 0.768784 0.495239 0.581058
O O8 0.593835 0.498878 0.568221
O O9 0.090482 0.502084 0.360502
O O10 0.000000 0.750000 0.336466
O O11 0.000000 0.501247 0.286783
O O12 0.314700 0.250000 0.875058
O O13 0.000000 0.250000 0.050426
O O14 0.000000 0.500000 0.000000
O O15 0.500000 0.750000 0.738470
#
# Coordination Sequence:
#
# PCOD9534802 Si02
#       6
#    16  16   8  16   8   8
#     4  10  20  34  54  79 109 141 176 220 267 320
#     4  10  20  36  56  81 112 145 181 225 271 323
#     4  10  20  36  56  78 103 141 183 223 270 321
#     4  10  22  37  56  80 108 141 183 227 271 322
#     4  10  18  31  54  81 107 140 176 214 265 324
#     4  10  20  35  53  79 111 143 177 219 268 317
#
# _framework density 18.604153
#
# number of rings (size 3 to 8) (size 9 to 14) (size 15 to 20)
#    0.000    2.000    2.222    3.000    0.000    4.000 
#    0.000    2.778    0.000    0.000    0.000    0.000 
#    0.000    0.000    0.000    0.000    0.000    0.000 
#
# Total GULP energy -200926.629775 kJ/mol
# GULP energy per Si atom -5581.295272 kJ/mol
# Density = 1.856181 g / cm^3
# Si number density = 18.604153 Si / 1000 Ang^3
#
#
#
# Elastic Constant Matrix: (Units=GPa)
#
#
# Indices 1 2 3 4 5 6 
#
# 1 195.3203 20.1517 77.2996 0.0000 0.0000 0.0000
# 2 20.1517 24.6120 11.7215 0.0000 0.0000 0.0000
# 3 77.2996 11.7215 96.5476 0.0000 0.0000 0.0000
# 4 0.0000 0.0000 0.0000 23.1606 0.0000 0.0000
# 5 0.0000 0.0000 0.0000 0.0000 27.3784 0.0000
# 6 0.0000 0.0000 0.0000 0.0000 0.0000 14.3359
#
#
#
# Elastic Compliance Matrix: (Units=1/GPa)
#
#
# Indices 1 2 3 4 5 6 
#
# 1 0.007786 -0.003615 -0.005795 0.000000 0.000000 0.000000
# 2 -0.003615 0.044803 -0.002545 0.000000 0.000000 0.000000
# 3 -0.005795 -0.002545 0.015306 0.000000 0.000000 0.000000
# 4 0.000000 0.000000 0.000000 0.043177 0.000000 0.000000
# 5 0.000000 0.000000 0.000000 0.000000 0.036525 0.000000
# 6 0.000000 0.000000 0.000000 0.000000 0.000000 0.069755
#
#
# Mechanical properties :
#
#
# Convention : Reuss Voigt Hill
#
# Bulk Modulus (GPa) = 22.73506 59.42506 41.08006
# Shear Modulus (GPa) = 19.53706 26.79545 23.16626
#
# Velocity S-wave (km/s) = 3.24411 3.79924 3.53260
# Velocity P-wave (km/s) = 5.12633 7.15938 6.22640
#
# Compressibility (1/GPa) = 0.04398493
#
# Stress axis : x y z
#
# Youngs Moduli (GPa) = 128.43195 22.32010 65.33277
#
# Poissons Ratio (x) = 0.08069 0.37861
# Poissons Ratio (y) = 0.46432 0.16626
# Poissons Ratio (z) = 0.74427 0.05680
#
# Static dielectric constant tensor:
#      x y z
#    x 1.672190 0.000000 0.000000 
#    y 0.000000 1.640790 0.000000 
#    z 0.000000 0.000000 1.615770 
# 
# From -- ./inp_files/66767.got.cif
#   From: 2010.05.17/outbox.cif.g08.bks.cpg/sg74_34_cif.got.tgz:66767.got - 2010.06.03 17:57:02.
