data_PCOD9534688
_publ_section_title
;
Structure prediction by ZEFSAII (Michael W. Deem and Ramdas Pophale) SiO2 
 PCOD9534688
Probable space group: I M M A
;
_chemical_formula_sum "Si O2"
_cell_formula_units_Z 128
_cell_length_a 24.475909
_cell_length_b 15.568547
_cell_length_c 21.542074
_cell_angle_alpha 90.000000
_cell_angle_beta 90.000000
_cell_angle_gamma 90.000000
_cell_volume 8208.700782
_symmetry_space_group_name_H-M "I M M A"
_symmetry_group_IT_number 74
_symmetry_cell_setting 'orthorhombic'
loop_
_space_group_symop_operation_xyz
x,y,z
-x,1/2-y,z
x,-y,-z
-x,1/2+y,-z
-x,-y,-z
x,1/2+y,-z
-x,y,z
x,1/2-y,z
1/2+x,1/2+y,1/2+z
1/2-x,-y,1/2+z
1/2+x,1/2-y,1/2-z
1/2-x,y,1/2-z
1/2-x,1/2-y,1/2-z
1/2+x,y,1/2-z
1/2-x,1/2+y,1/2+z
1/2+x,-y,1/2+z
loop_
_atom_site_type_symbol
_atom_site_label
_atom_site_fract_x
_atom_site_fract_y
_atom_site_fract_z
Si Si1 0.223115 0.468224 0.651188
Si Si2 0.119409 0.348063 0.967494
Si Si3 0.261283 0.653356 0.896650
Si Si4 0.662893 0.530244 0.274191
Si Si5 0.561928 0.089143 0.649386
Si Si6 0.256324 0.148847 0.543052
Si Si7 0.850237 0.657548 0.819729
Si Si8 0.938572 0.599652 0.911199
O O1 0.213430 0.568151 0.633603
O O2 0.284015 0.457948 0.681284
O O3 0.181299 0.443814 0.705539
O O4 0.222411 0.409458 0.590231
O O5 0.125387 0.250000 0.989718
O O6 0.083344 0.350582 0.905671
O O7 0.180277 0.380156 0.953086
O O8 0.091583 0.398672 0.023174
O O9 0.283205 0.750000 0.883160
O O10 0.199888 0.652823 0.868565
O O11 0.259869 0.641870 0.970877
O O12 0.609558 0.579320 0.299441
O O13 0.652280 0.427304 0.277851
O O14 0.500000 0.109635 0.670149
O O15 0.560242 0.996102 0.616040
O O16 0.253530 0.250000 0.560264
O O17 0.846046 0.750000 0.787200
O O18 0.904377 0.652440 0.861078
O O19 0.000000 0.631517 0.919433
#
# Coordination Sequence:
#
# PCOD9534688 Si02
#       8
#    16  16  16  16  16  16  16  16
#     4  10  18  31  48  62  87 119 146 186 221 261
#     4  11  20  29  42  61  85 115 152 191 223 253
#     4   9  17  28  45  68  89 111 140 173 223 276
#     4   9  19  31  44  63  82 113 157 182 216 263
#     4  10  20  33  45  59  84 116 151 190 223 256
#     4  10  19  30  45  67  91 117 149 183 224 269
#     4   9  16  27  41  59  86 115 142 180 220 256
#     4  10  19  28  41  61  85 117 155 187 216 254
#
# _framework density 15.593211
#
# number of rings (size 3 to 8) (size 9 to 14) (size 15 to 20)
#    0.000    2.250    2.500    1.500    0.000    4.250 
#    0.000    4.375    0.000    0.000    0.000    0.000 
#    0.000    2.000    0.000    2.750    0.000    0.000 
#
# Total GULP energy -356637.613944 kJ/mol
# GULP energy per Si atom -5572.462718 kJ/mol
# Density = 1.555772 g / cm^3
# Si number density = 15.593211 Si / 1000 Ang^3
#
#
#
# Elastic Constant Matrix: (Units=GPa)
#
#
# Indices 1 2 3 4 5 6 
#
# 1 53.6783 5.2306 32.9605 0.0000 0.0000 0.0000
# 2 5.2306 17.7387 8.1115 0.0000 0.0000 0.0000
# 3 32.9605 8.1115 53.3326 0.0000 0.0000 0.0000
# 4 0.0000 0.0000 0.0000 9.9718 0.0000 0.0000
# 5 0.0000 0.0000 0.0000 0.0000 16.2510 0.0000
# 6 0.0000 0.0000 0.0000 0.0000 0.0000 6.7884
#
#
#
# Elastic Compliance Matrix: (Units=1/GPa)
#
#
# Indices 1 2 3 4 5 6 
#
# 1 0.030025 -0.000396 -0.018496 0.000000 0.000000 0.000000
# 2 -0.000396 0.060593 -0.008971 0.000000 0.000000 0.000000
# 3 -0.018496 -0.008971 0.031545 0.000000 0.000000 0.000000
# 4 0.000000 0.000000 0.000000 0.100282 0.000000 0.000000
# 5 0.000000 0.000000 0.000000 0.000000 0.061535 0.000000
# 6 0.000000 0.000000 0.000000 0.000000 0.000000 0.147311
#
#
# Mechanical properties :
#
#
# Convention : Reuss Voigt Hill
#
# Bulk Modulus (GPa) = 15.05163 24.15052 19.60108
# Shear Modulus (GPa) = 9.82004 11.83204 10.82604
#
# Velocity S-wave (km/s) = 2.51223 2.75761 2.63778
# Velocity P-wave (km/s) = 4.25308 5.06564 4.67704
#
# Compressibility (1/GPa) = 0.06643798
#
# Stress axis : x y z
#
# Youngs Moduli (GPa) = 33.30535 16.50359 31.70028
#
# Poissons Ratio (x) = 0.00653 0.58632
# Poissons Ratio (y) = 0.01318 0.28439
# Poissons Ratio (z) = 0.61601 0.14806
#
# Static dielectric constant tensor:
#      x y z
#    x 1.514140 0.000000 0.000000 
#    y 0.000000 1.570290 0.000000 
#    z 0.000000 0.000000 1.503850 
# 
# From -- ./inp_files/46324.got.cif
#   From: 2010.05.17/outbox.cif.g08.bks.cpg/sg74_24_cif.got.tgz:46324.got - 2010.06.03 17:57:02.
