data_PCOD9534751
_publ_section_title
;
Structure prediction by ZEFSAII (Michael W. Deem and Ramdas Pophale) SiO2 
 PCOD9534751
Probable space group: I M M A
;
_chemical_formula_sum "Si O2"
_cell_formula_units_Z 116
_cell_length_a 29.398971
_cell_length_b 7.446803
_cell_length_c 24.303176
_cell_angle_alpha 90.000000
_cell_angle_beta 90.000000
_cell_angle_gamma 90.000000
_cell_volume 5320.654111
_symmetry_space_group_name_H-M "I M M A"
_symmetry_group_IT_number 74
_symmetry_cell_setting 'orthorhombic'
loop_
_space_group_symop_operation_xyz
x,y,z
-x,1/2-y,z
x,-y,-z
-x,1/2+y,-z
-x,-y,-z
x,1/2+y,-z
-x,y,z
x,1/2-y,z
1/2+x,1/2+y,1/2+z
1/2-x,-y,1/2+z
1/2+x,1/2-y,1/2-z
1/2-x,y,1/2-z
1/2-x,1/2-y,1/2-z
1/2+x,y,1/2-z
1/2-x,1/2+y,1/2+z
1/2+x,-y,1/2+z
loop_
_atom_site_type_symbol
_atom_site_label
_atom_site_fract_x
_atom_site_fract_y
_atom_site_fract_z
Si Si1 0.050443 0.535856 0.775218
Si Si2 0.000000 0.250000 0.940794
Si Si3 0.241748 0.963963 0.437637
Si Si4 0.170697 0.032564 0.872988
Si Si5 0.119782 0.035783 0.677394
Si Si6 0.302093 0.030692 0.747265
Si Si7 0.138098 0.964878 0.438575
Si Si8 0.571397 0.040164 0.400279
O O1 0.048825 0.750000 0.779658
O O2 0.083242 0.496915 0.724711
O O3 0.064120 0.476031 0.836499
O O4 0.000000 0.466144 0.763701
O O5 0.040180 0.408544 0.935791
O O6 0.238885 0.750000 0.428023
O O7 0.281558 0.030817 0.398398
O O8 0.190187 0.034170 0.433269
O O9 0.256336 0.000000 0.500000
O O10 0.169902 0.250000 0.874277
O O11 0.172446 0.976639 0.808948
O O12 0.126033 0.970641 0.905552
O O13 0.123362 0.250000 0.673807
O O14 0.167999 0.970328 0.701233
O O15 0.111528 0.969357 0.615455
O O16 0.301180 0.250000 0.747318
O O17 0.250000 0.971280 0.750000
O O18 0.140437 0.750000 0.435957
O O19 0.120701 0.000000 0.500000
O O20 0.557731 0.250000 0.406382
#
# Coordination Sequence:
#
# PCOD9534751 Si02
#       8
#    16   4  16  16  16  16  16  16
#     4  10  21  35  50  73 107 140 176 221 274 328
#     4  12  22  36  60  78 112 148 194 224 284 330
#     4   9  18  32  52  76 108 143 188 229 266 319
#     4  10  18  31  51  77 110 146 183 225 276 332
#     4  10  19  30  51  77 102 134 181 223 268 331
#     4   9  16  26  45  73 105 141 178 217 267 330
#     4   9  18  33  51  76 104 140 185 231 270 320
#     4  11  22  35  54  82 114 146 184 231 275 336
#
# _framework density 21.801832000000001
#
# number of rings (size 3 to 8) (size 9 to 14) (size 15 to 20)
#    0.000    2.207    2.759    1.034    0.966    4.690 
#    0.000    0.000    0.000    3.724    0.000    0.483 
#    0.000    0.000    0.000    0.000    0.000    0.000 
#
# Total GULP energy -323220.350902 kJ/mol
# GULP energy per Si atom -5572.764671 kJ/mol
# Density = 2.175221 g / cm^3
# Si number density = 21.801832 Si / 1000 Ang^3
#
#
#
# Elastic Constant Matrix: (Units=GPa)
#
#
# Indices 1 2 3 4 5 6 
#
# 1 42.5363 -2.6124 -16.5476 0.0000 0.0000 0.0000
# 2 -2.6124 92.1037 -4.1600 0.0000 0.0000 0.0000
# 3 -16.5476 -4.1600 49.9873 0.0000 0.0000 0.0000
# 4 0.0000 0.0000 0.0000 6.0487 0.0000 0.0000
# 5 0.0000 0.0000 0.0000 0.0000 -0.7614 0.0000
# 6 0.0000 0.0000 0.0000 0.0000 0.0000 20.2812
#
#
#
# Elastic Compliance Matrix: (Units=1/GPa)
#
#
# Indices 1 2 3 4 5 6 
#
# 1 0.027111 0.001179 0.009073 0.000000 0.000000 0.000000
# 2 0.001179 0.010950 0.001301 0.000000 0.000000 0.000000
# 3 0.009073 0.001301 0.023117 0.000000 0.000000 0.000000
# 4 0.000000 0.000000 0.000000 0.165325 0.000000 0.000000
# 5 0.000000 0.000000 0.000000 0.000000 -1.313383 0.000000
# 6 0.000000 0.000000 0.000000 0.000000 0.000000 0.049307
#
#
# Mechanical properties :
#
#
# Convention : Reuss Voigt Hill
#
# Bulk Modulus (GPa) = 11.86468 15.33194 13.59831
# Shear Modulus (GPa) = -4.84221 18.97685 7.06732
#
# Velocity S-wave (km/s) = -1.49192 2.95350 1.80240
# Velocity P-wave (km/s) = 1.57673 4.32187 3.25305
#
# Compressibility (1/GPa) = 0.08428379
#
# Stress axis : x y z
#
# Youngs Moduli (GPa) = 36.88505 91.32806 43.25853
#
# Poissons Ratio (x) = -0.10765 -0.39248
# Poissons Ratio (y) = -0.04348 -0.05630
# Poissons Ratio (z) = -0.33465 -0.11886
#
# Static dielectric constant tensor:
#      x y z
#    x 1.799980 0.000000 0.000000 
#    y 0.000000 1.997400 0.000000 
#    z 0.000000 0.000000 1.847490 
# 
# From -- ./inp_files/62742.got.cif
#   From: 2010.05.17/outbox.cif.g08.bks.cpg/sg74_32_cif.got.tgz:62742.got - 2010.06.03 17:57:02.
