data_PCOD9534781
_publ_section_title
;
Structure prediction by ZEFSAII (Michael W. Deem and Ramdas Pophale) SiO2 
 PCOD9534781
Probable space group: I M M A
;
_chemical_formula_sum "Si O2"
_cell_formula_units_Z 112
_cell_length_a 14.422355
_cell_length_b 15.298045
_cell_length_c 28.438255
_cell_angle_alpha 90.000000
_cell_angle_beta 90.000000
_cell_angle_gamma 90.000000
_cell_volume 6274.441284
_symmetry_space_group_name_H-M "I M M A"
_symmetry_group_IT_number 74
_symmetry_cell_setting 'orthorhombic'
loop_
_space_group_symop_operation_xyz
x,y,z
-x,1/2-y,z
x,-y,-z
-x,1/2+y,-z
-x,-y,-z
x,1/2+y,-z
-x,y,z
x,1/2-y,z
1/2+x,1/2+y,1/2+z
1/2-x,-y,1/2+z
1/2+x,1/2-y,1/2-z
1/2-x,y,1/2-z
1/2-x,1/2-y,1/2-z
1/2+x,y,1/2-z
1/2-x,1/2+y,1/2+z
1/2+x,-y,1/2+z
loop_
_atom_site_type_symbol
_atom_site_label
_atom_site_fract_x
_atom_site_fract_y
_atom_site_fract_z
Si Si1 0.391352 0.020109 0.183866
Si Si2 0.393969 0.356370 0.439828
Si Si3 0.111437 0.350732 0.956535
Si Si4 0.395900 0.417640 0.291653
Si Si5 0.780078 0.154166 0.696069
Si Si6 0.751818 0.849461 0.857194
Si Si7 0.393721 0.408694 0.643913
O O1 0.500000 0.019323 0.172855
O O2 0.346400 0.924373 0.181190
O O3 0.381573 0.052131 0.238178
O O4 0.332458 0.085237 0.151531
O O5 0.500000 0.388622 0.430385
O O6 0.400071 0.250000 0.441178
O O7 0.360140 0.382956 0.491822
O O8 0.320140 0.376596 0.399675
O O9 0.143861 0.250000 0.948304
O O10 0.129791 0.411074 0.911542
O O11 0.000000 0.345877 0.960583
O O12 0.500000 0.380644 0.295997
O O13 0.316820 0.355103 0.310937
O O14 0.390824 0.502281 0.325953
O O15 0.823391 0.250000 0.691617
O O16 0.750000 0.140731 0.750000
O O17 0.685088 0.149942 0.666920
O O18 0.721119 0.750000 0.864810
O O19 0.500000 0.375386 0.647540
#
# Coordination Sequence:
#
# PCOD9534781 Si02
#       7
#    16  16  16  16  16  16  16
#     4  11  23  40  54  71 106 143 183 234 278 311
#     4   8  15  29  50  79 114 144 171 211 265 326
#     4   8  14  26  46  76 114 148 173 204 253 318
#     4  10  20  34  52  75 110 146 173 213 268 323
#     4  11  21  34  54  79 107 143 185 220 260 317
#     4  11  21  35  57  79 102 140 186 227 274 325
#     4  10  18  31  52  80 113 145 174 206 254 319
#
# _framework density 17.850194999999999
#
# number of rings (size 3 to 8) (size 9 to 14) (size 15 to 20)
#    0.000    2.143    2.857    2.143    0.000    3.429 
#    0.000    3.571    0.000    3.429    0.000    2.000 
#    0.000    3.429    0.000    0.000    0.000    0.000 
#
# Total GULP energy -312359.249321 kJ/mol
# GULP energy per Si atom -5577.843738 kJ/mol
# Density = 1.780957 g / cm^3
# Si number density = 17.850195 Si / 1000 Ang^3
#
#
#
# Elastic Constant Matrix: (Units=GPa)
#
#
# Indices 1 2 3 4 5 6 
#
# 1 97.5864 48.1182 58.1395 0.0000 0.0000 0.0000
# 2 48.1182 79.4171 34.8434 0.0000 0.0000 0.0000
# 3 58.1395 34.8434 104.6238 0.0000 0.0000 0.0000
# 4 0.0000 0.0000 0.0000 20.7950 0.0000 0.0000
# 5 0.0000 0.0000 0.0000 0.0000 20.9735 0.0000
# 6 0.0000 0.0000 0.0000 0.0000 0.0000 2.9704
#
#
#
# Elastic Compliance Matrix: (Units=1/GPa)
#
#
# Indices 1 2 3 4 5 6 
#
# 1 0.018838 -0.007988 -0.007808 0.000000 0.000000 0.000000
# 2 -0.007988 0.018134 -0.001600 0.000000 0.000000 0.000000
# 3 -0.007808 -0.001600 0.014430 0.000000 0.000000 0.000000
# 4 0.000000 0.000000 0.000000 0.048088 0.000000 0.000000
# 5 0.000000 0.000000 0.000000 0.000000 0.047679 0.000000
# 6 0.000000 0.000000 0.000000 0.000000 0.000000 0.336655
#
#
# Mechanical properties :
#
#
# Convention : Reuss Voigt Hill
#
# Bulk Modulus (GPa) = 60.20803 62.64773 61.42788
# Shear Modulus (GPa) = 9.53921 18.31619 13.92770
#
# Velocity S-wave (km/s) = 2.31422 3.20676 2.79633
# Velocity P-wave (km/s) = 6.39873 6.99169 6.70177
#
# Compressibility (1/GPa) = 0.01660908
#
# Stress axis : x y z
#
# Youngs Moduli (GPa) = 53.08460 55.14590 69.30085
#
# Poissons Ratio (x) = 0.44051 0.54109
# Poissons Ratio (y) = 0.42404 0.11089
# Poissons Ratio (z) = 0.41448 0.08824
#
# Static dielectric constant tensor:
#      x y z
#    x 1.585490 0.000000 0.000000 
#    y 0.000000 1.672560 0.000000 
#    z 0.000000 0.000000 1.642930 
# 
# From -- ./inp_files/67185.got.cif
#   From: 2010.05.17/outbox.cif.g08.bks.cpg/sg74_34_cif.got.tgz:67185.got - 2010.06.03 17:57:02.
