data_PCOD9534778
_publ_section_title
;
Structure prediction by ZEFSAII (Michael W. Deem and Ramdas Pophale) SiO2 
 PCOD9534778
Probable space group: I M M A
;
_chemical_formula_sum "Si O2"
_cell_formula_units_Z 96
_cell_length_a 15.871478
_cell_length_b 21.602201
_cell_length_c 14.759943
_cell_angle_alpha 90.000000
_cell_angle_beta 90.000000
_cell_angle_gamma 90.000000
_cell_volume 5060.577200
_symmetry_space_group_name_H-M "I M M A"
_symmetry_group_IT_number 74
_symmetry_cell_setting 'orthorhombic'
loop_
_space_group_symop_operation_xyz
x,y,z
-x,1/2-y,z
x,-y,-z
-x,1/2+y,-z
-x,-y,-z
x,1/2+y,-z
-x,y,z
x,1/2-y,z
1/2+x,1/2+y,1/2+z
1/2-x,-y,1/2+z
1/2+x,1/2-y,1/2-z
1/2-x,y,1/2-z
1/2-x,1/2-y,1/2-z
1/2+x,y,1/2-z
1/2-x,1/2+y,1/2+z
1/2+x,-y,1/2+z
loop_
_atom_site_type_symbol
_atom_site_label
_atom_site_fract_x
_atom_site_fract_y
_atom_site_fract_z
Si Si1 0.839847 0.865554 0.207375
Si Si2 0.729731 0.179284 0.527715
Si Si3 0.905869 0.005199 0.796423
Si Si4 0.909052 0.323476 0.605250
Si Si5 0.780060 0.057987 0.072298
Si Si6 0.092209 0.534942 0.596370
O O1 0.750000 0.886496 0.250000
O O2 0.816608 0.821365 0.124887
O O3 0.887518 0.925471 0.171680
O O4 0.891131 0.835943 0.289343
O O5 0.729525 0.250000 0.492354
O O6 0.825945 0.157687 0.550652
O O7 0.691654 0.123611 0.469150
O O8 0.000000 0.985329 0.821892
O O9 0.836552 0.962163 0.842756
O O10 0.902459 0.007478 0.686694
O O11 0.913082 0.250000 0.592499
O O12 0.000000 0.351189 0.579818
O O13 0.682344 0.067695 0.099277
O O14 0.783936 0.000000 0.000000
O O15 0.090957 0.500000 0.500000
O O16 0.000000 0.566983 0.604579
#
# Coordination Sequence:
#
# PCOD9534778 Si02
#       6
#    16  16  16  16  16  16
#     4  10  18  31  52  78 114 153 187 227 285 348
#     4  10  21  36  54  78 113 154 196 237 281 338
#     4  11  22  36  56  84 117 152 191 236 287 340
#     4   9  18  31  49  77 113 152 188 227 284 352
#     4  11  21  37  57  83 116 155 193 233 281 332
#     4   9  20  35  57  88 116 143 182 237 298 350
#
# _framework density 18.970168000000001
#
# number of rings (size 3 to 8) (size 9 to 14) (size 15 to 20)
#    0.000    2.000    1.667    2.500    7.000    3.000 
#    0.000    0.000    0.000    4.500    0.000    2.333 
#    0.000    0.000    0.000    0.000    0.000    0.000 
#
# Total GULP energy -267380.015939 kJ/mol
# GULP energy per Si atom -5570.416999 kJ/mol
# Density = 1.892699 g / cm^3
# Si number density = 18.970168 Si / 1000 Ang^3
#
#
#
# Elastic Constant Matrix: (Units=GPa)
#
#
# Indices 1 2 3 4 5 6 
#
# 1 79.7673 18.9613 40.3075 0.0000 0.0000 0.0000
# 2 18.9613 68.7372 28.5560 0.0000 0.0000 0.0000
# 3 40.3075 28.5560 61.5764 0.0000 0.0000 0.0000
# 4 0.0000 0.0000 0.0000 27.7715 0.0000 0.0000
# 5 0.0000 0.0000 0.0000 0.0000 17.9795 0.0000
# 6 0.0000 0.0000 0.0000 0.0000 0.0000 11.9434
#
#
#
# Elastic Compliance Matrix: (Units=1/GPa)
#
#
# Indices 1 2 3 4 5 6 
#
# 1 0.018733 -0.000091 -0.012221 0.000000 0.000000 0.000000
# 2 -0.000091 0.018020 -0.008298 0.000000 0.000000 0.000000
# 3 -0.012221 -0.008298 0.028088 0.000000 0.000000 0.000000
# 4 0.000000 0.000000 0.000000 0.036008 0.000000 0.000000
# 5 0.000000 0.000000 0.000000 0.000000 0.055619 0.000000
# 6 0.000000 0.000000 0.000000 0.000000 0.000000 0.083728
#
#
# Mechanical properties :
#
#
# Convention : Reuss Voigt Hill
#
# Bulk Modulus (GPa) = 42.33097 42.85895 42.59496
# Shear Modulus (GPa) = 17.28379 19.68928 18.48654
#
# Velocity S-wave (km/s) = 3.02172 3.22515 3.12509
# Velocity P-wave (km/s) = 5.87685 6.04241 5.96020
#
# Compressibility (1/GPa) = 0.02362337
#
# Stress axis : x y z
#
# Youngs Moduli (GPa) = 53.38089 55.49295 35.60301
#
# Poissons Ratio (x) = 0.00503 0.43509
# Poissons Ratio (y) = 0.00484 0.29542
# Poissons Ratio (z) = 0.65235 0.46045
#
# Static dielectric constant tensor:
#      x y z
#    x 1.715480 0.000000 0.000000 
#    y 0.000000 1.665760 0.000000 
#    z 0.000000 0.000000 1.672730 
# 
# From -- ./inp_files/32315.got.cif
#   From: 2010.05.17/outbox.cif.g08.bks.cpg/sg74_17_cif.got.tgz:32315.got - 2010.06.03 17:57:02.
