data_PCOD9534284
_publ_section_title
;
Structure prediction by ZEFSAII (Michael W. Deem and Ramdas Pophale) SiO2 
 PCOD9534284
Probable space group: I M M A
;
_chemical_formula_sum "Si O2"
_cell_formula_units_Z 104
_cell_length_a 8.248222
_cell_length_b 29.571761
_cell_length_c 24.954331
_cell_angle_alpha 90.000000
_cell_angle_beta 90.000000
_cell_angle_gamma 90.000000
_cell_volume 6086.721912
_symmetry_space_group_name_H-M "I M M A"
_symmetry_group_IT_number 74
_symmetry_cell_setting 'orthorhombic'
loop_
_space_group_symop_operation_xyz
x,y,z
-x,1/2-y,z
x,-y,-z
-x,1/2+y,-z
-x,-y,-z
x,1/2+y,-z
-x,y,z
x,1/2-y,z
1/2+x,1/2+y,1/2+z
1/2-x,-y,1/2+z
1/2+x,1/2-y,1/2-z
1/2-x,y,1/2-z
1/2-x,1/2-y,1/2-z
1/2+x,y,1/2-z
1/2-x,1/2+y,1/2+z
1/2+x,-y,1/2+z
loop_
_atom_site_type_symbol
_atom_site_label
_atom_site_fract_x
_atom_site_fract_y
_atom_site_fract_z
Si Si1 0.193202 0.926980 0.811740
Si Si2 0.306289 0.023410 0.811811
Si Si3 0.803776 0.122785 0.688416
Si Si4 0.301512 0.839294 0.624345
Si Si5 0.304476 0.802555 0.512219
Si Si6 0.804375 0.250000 0.188780
Si Si7 0.195144 0.198447 0.606213
O O1 0.250000 0.922830 0.750000
O O2 0.254630 0.885125 0.847133
O O3 0.000000 0.925054 0.810658
O O4 0.242266 0.976141 0.834389
O O5 0.500000 0.021793 0.813648
O O6 0.250000 0.023177 0.750000
O O7 0.252026 0.072785 0.832112
O O8 0.750000 0.128298 0.750000
O O9 0.744480 0.162984 0.650307
O O10 0.000000 0.123200 0.688093
O O11 0.500000 0.839647 0.624527
O O12 0.250193 0.832002 0.562903
O O13 0.249935 0.795321 0.658262
O O14 0.500000 0.803741 0.510439
O O15 0.257263 0.750000 0.521652
O O16 0.239858 0.815863 0.454049
O O17 0.750000 0.250000 0.250000
O O18 0.000000 0.250000 0.187154
O O19 0.255625 0.250000 0.614218
O O20 0.000000 0.199729 0.610039
#
# Coordination Sequence:
#
# PCOD9534284 Si02
#       7
#    16  16  16  16  16   8  16
#     4  10  18  28  43  65  91 118 149 187 230 270
#     4   9  16  28  45  64  87 117 151 183 216 261
#     4   9  18  31  48  70  96 123 148 176 217 267
#     4   9  17  29  46  64  87 119 152 188 228 268
#     4   9  16  30  50  67  84 115 159 193 218 261
#     4  10  18  30  44  62  90 122 149 182 229 276
#     4   9  18  32  48  69  97 122 143 179 227 266
#
# _framework density 17.086372000000001
#
# number of rings (size 3 to 8) (size 9 to 14) (size 15 to 20)
#    0.000    2.769    0.769    2.308    0.000    1.538 
#    0.000    3.077    0.000    0.923    0.000    6.462 
#    0.000    0.000    0.000    0.000    0.000    0.000 
#
# Total GULP energy -289664.934453 kJ/mol
# GULP energy per Si atom -5570.479509 kJ/mol
# Density = 1.704748 g / cm^3
# Si number density = 17.086372 Si / 1000 Ang^3
#
#
#
# Elastic Constant Matrix: (Units=GPa)
#
#
# Indices 1 2 3 4 5 6 
#
# 1 11.3226 17.2808 8.5668 0.0000 0.0000 0.0000
# 2 17.2808 161.2539 93.6540 0.0000 0.0000 0.0000
# 3 8.5668 93.6540 105.3637 0.0000 0.0000 0.0000
# 4 0.0000 0.0000 0.0000 10.0677 0.0000 0.0000
# 5 0.0000 0.0000 0.0000 0.0000 20.1467 0.0000
# 6 0.0000 0.0000 0.0000 0.0000 0.0000 12.7434
#
#
#
# Elastic Compliance Matrix: (Units=1/GPa)
#
#
# Indices 1 2 3 4 5 6 
#
# 1 0.106063 -0.013142 0.003058 0.000000 0.000000 0.000000
# 2 -0.013142 0.014448 -0.011773 0.000000 0.000000 0.000000
# 3 0.003058 -0.011773 0.019707 0.000000 0.000000 0.000000
# 4 0.000000 0.000000 0.000000 0.099327 0.000000 0.000000
# 5 0.000000 0.000000 0.000000 0.000000 0.049636 0.000000
# 6 0.000000 0.000000 0.000000 0.000000 0.000000 0.078472
#
#
# Mechanical properties :
#
#
# Convention : Reuss Voigt Hill
#
# Bulk Modulus (GPa) = 10.36238 57.43815 33.90027
# Shear Modulus (GPa) = 11.27303 19.15414 15.21358
#
# Velocity S-wave (km/s) = 2.57138 3.35179 2.98718
# Velocity P-wave (km/s) = 3.85926 6.97630 5.63749
#
# Compressibility (1/GPa) = 0.09650289
#
# Stress axis : x y z
#
# Youngs Moduli (GPa) = 9.42833 69.21548 50.74275
#
# Poissons Ratio (x) = 0.90966 -0.15518
# Poissons Ratio (y) = 0.12391 0.59742
# Poissons Ratio (z) = -0.02883 0.81490
#
# Static dielectric constant tensor:
#      x y z
#    x 1.620670 0.000000 0.000000 
#    y 0.000000 1.617330 0.000000 
#    z 0.000000 0.000000 1.549270 
# 
# From -- ./inp_files/57853.got.cif
#   From: 2010.05.17/outbox.cif.g08.bks.cpg/sg74_29_cif.got.tgz:57853.got - 2010.06.03 17:57:02.
