data_PCOD9534716
_publ_section_title
;
Structure prediction by ZEFSAII (Michael W. Deem and Ramdas Pophale) SiO2 
 PCOD9534716
Probable space group: I M M A
;
_chemical_formula_sum "Si O2"
_cell_formula_units_Z 96
_cell_length_a 20.564171
_cell_length_b 7.592497
_cell_length_c 31.304122
_cell_angle_alpha 90.000000
_cell_angle_beta 90.000000
_cell_angle_gamma 90.000000
_cell_volume 4887.619209
_symmetry_space_group_name_H-M "I M M A"
_symmetry_group_IT_number 74
_symmetry_cell_setting 'orthorhombic'
loop_
_space_group_symop_operation_xyz
x,y,z
-x,1/2-y,z
x,-y,-z
-x,1/2+y,-z
-x,-y,-z
x,1/2+y,-z
-x,y,z
x,1/2-y,z
1/2+x,1/2+y,1/2+z
1/2-x,-y,1/2+z
1/2+x,1/2-y,1/2-z
1/2-x,y,1/2-z
1/2-x,1/2-y,1/2-z
1/2+x,y,1/2-z
1/2-x,1/2+y,1/2+z
1/2+x,-y,1/2+z
loop_
_atom_site_type_symbol
_atom_site_label
_atom_site_fract_x
_atom_site_fract_y
_atom_site_fract_z
Si Si1 0.710994 0.538384 0.549988
Si Si2 0.796208 0.033762 0.373726
Si Si3 0.930649 0.961338 0.949194
Si Si4 0.572357 0.541557 0.267297
Si Si5 0.928288 0.962201 0.666899
Si Si6 0.714933 0.457842 0.292638
O O1 0.720001 0.500000 0.500000
O O2 0.708622 0.750000 0.553566
O O3 0.767318 0.474435 0.581196
O O4 0.639726 0.471649 0.565243
O O5 0.797204 0.250000 0.374241
O O6 0.868337 0.974129 0.361273
O O7 0.748088 0.974897 0.335724
O O8 0.931002 0.750000 0.943519
O O9 0.000000 0.029255 0.931813
O O10 0.931098 0.000000 0.000000
O O11 0.500000 0.470459 0.278782
O O12 0.570385 0.750000 0.273519
O O13 0.582071 0.505298 0.216808
O O14 0.637225 0.476428 0.290498
O O15 0.929037 0.750000 0.664131
O O16 0.000000 0.028012 0.654840
O O17 0.729307 0.250000 0.292498
O O18 0.750000 0.531962 0.250000
#
# Coordination Sequence:
#
# PCOD9534716 Si02
#       6
#    16  16  16  16  16  16
#     4   9  17  30  47  66  92 120 151 193 238 281
#     4   9  17  30  48  72  96 120 154 201 243 277
#     4   8  13  22  38  59  80 105 138 175 215 261
#     4  10  20  32  46  68 100 133 162 195 237 285
#     4   9  16  29  50  71  91 121 162 201 236 280
#     4  10  18  31  50  71  96 125 160 200 238 282
#
# _framework density 19.641465
#
# number of rings (size 3 to 8) (size 9 to 14) (size 15 to 20)
#    0.000    2.833    1.667    0.500    0.000    1.333 
#    0.000    2.500    0.000    3.500    0.000    9.333 
#    0.000    0.000    0.000    0.000    0.000    0.000 
#
# Total GULP energy -267456.592530 kJ/mol
# GULP energy per Si atom -5572.012344 kJ/mol
# Density = 1.959676 g / cm^3
# Si number density = 19.641465 Si / 1000 Ang^3
#
#
#
# Elastic Constant Matrix: (Units=GPa)
#
#
# Indices 1 2 3 4 5 6 
#
# 1 154.0301 -8.3938 64.8246 0.0000 0.0000 0.0000
# 2 -8.3938 39.3180 -0.0648 0.0000 0.0000 0.0000
# 3 64.8246 -0.0648 69.3029 0.0000 0.0000 0.0000
# 4 0.0000 0.0000 0.0000 -0.5962 0.0000 0.0000
# 5 0.0000 0.0000 0.0000 0.0000 28.1615 0.0000
# 6 0.0000 0.0000 0.0000 0.0000 0.0000 5.4981
#
#
#
# Elastic Compliance Matrix: (Units=1/GPa)
#
#
# Indices 1 2 3 4 5 6 
#
# 1 0.010914 0.002313 -0.010206 0.000000 0.000000 0.000000
# 2 0.002313 0.025924 -0.002139 0.000000 0.000000 0.000000
# 3 -0.010206 -0.002139 0.023974 0.000000 0.000000 0.000000
# 4 0.000000 0.000000 0.000000 -1.677268 0.000000 0.000000
# 5 0.000000 0.000000 0.000000 0.000000 0.035509 0.000000
# 6 0.000000 0.000000 0.000000 0.000000 0.000000 0.181880
#
#
# Mechanical properties :
#
#
# Convention : Reuss Voigt Hill
#
# Bulk Modulus (GPa) = 24.54190 41.70924 33.12557
# Shear Modulus (GPa) = -3.66188 20.36502 8.35157
#
# Velocity S-wave (km/s) = -1.36690 3.22349 2.06428
# Velocity P-wave (km/s) = 3.16715 5.92756 4.75220
#
# Compressibility (1/GPa) = 0.04074664
#
# Stress axis : x y z
#
# Youngs Moduli (GPa) = 91.62815 38.57436 41.71153
#
# Poissons Ratio (x) = -0.08923 0.42572
# Poissons Ratio (y) = -0.21194 0.08924
# Poissons Ratio (z) = 0.93518 0.08253
#
# Static dielectric constant tensor:
#      x y z
#    x 1.735050 0.000000 0.000000 
#    y 0.000000 1.737310 0.000000 
#    z 0.000000 0.000000 1.593800 
# 
# From -- ./inp_files/68147.got.cif
#   From: 2010.05.17/outbox.cif.g08.bks.cpg/sg74_35_cif.got.tgz:68147.got - 2010.06.03 17:57:02.
