data_PCOD9534949
_publ_section_title
;
Structure prediction by ZEFSAII (Michael W. Deem and Ramdas Pophale) SiO2 
 PCOD9534949
Probable space group: I M M A
;
_chemical_formula_sum "Si O2"
_cell_formula_units_Z 88
_cell_length_a 28.328753
_cell_length_b 8.658148
_cell_length_c 19.330712
_cell_angle_alpha 90.000000
_cell_angle_beta 90.000000
_cell_angle_gamma 90.000000
_cell_volume 4741.331419
_symmetry_space_group_name_H-M "I M M A"
_symmetry_group_IT_number 74
_symmetry_cell_setting 'orthorhombic'
loop_
_space_group_symop_operation_xyz
x,y,z
-x,1/2-y,z
x,-y,-z
-x,1/2+y,-z
-x,-y,-z
x,1/2+y,-z
-x,y,z
x,1/2-y,z
1/2+x,1/2+y,1/2+z
1/2-x,-y,1/2+z
1/2+x,1/2-y,1/2-z
1/2-x,y,1/2-z
1/2-x,1/2-y,1/2-z
1/2+x,y,1/2-z
1/2-x,1/2+y,1/2+z
1/2+x,-y,1/2+z
loop_
_atom_site_type_symbol
_atom_site_label
_atom_site_fract_x
_atom_site_fract_y
_atom_site_fract_z
Si Si1 0.555000 0.565531 0.193593
Si Si2 0.500000 0.435837 0.423118
Si Si3 0.282444 0.065438 0.921581
Si Si4 0.315907 0.435522 0.421975
Si Si5 0.408527 0.936435 0.665075
Si Si6 0.380596 0.933794 0.922537
O O1 0.500000 0.522326 0.203197
O O2 0.557811 0.750000 0.186284
O O3 0.584103 0.511406 0.260462
O O4 0.577060 0.486499 0.126286
O O5 0.500000 0.250000 0.426206
O O6 0.500000 0.500000 0.500000
O O7 0.546853 0.484053 0.381977
O O8 0.282886 0.250000 0.922455
O O9 0.233109 0.003035 0.892344
O O10 0.331447 0.001430 0.891952
O O11 0.282300 0.000000 0.000000
O O12 0.322693 0.500000 0.500000
O O13 0.312334 0.250000 0.426392
O O14 0.360333 0.477129 0.374303
O O15 0.409714 0.750000 0.672542
O O16 0.377012 0.750000 0.926347
O O17 0.386441 0.000000 0.000000
#
# Coordination Sequence:
#
# PCOD9534949 Si02
#       6
#    16   8  16  16  16  16
#     4  11  24  41  61  85 114 150 190 234 287 345
#     4  10  20  34  54  80 111 148 195 242 286 332
#     4  10  18  32  55  83 116 150 186 232 283 338
#     4  10  19  32  53  83 116 153 195 239 285 336
#     4  10  21  37  56  79 113 154 195 238 286 340
#     4  11  22  39  64  90 117 147 184 232 281 340
#
# _framework density 18.560186999999999
#
# number of rings (size 3 to 8) (size 9 to 14) (size 15 to 20)
#    0.000    1.636    0.909    7.091    0.000    3.636 
#    0.000    0.909    0.000    5.455    0.000    0.000 
#    0.000    0.000    0.000    0.000    0.000    0.000 
#
# Total GULP energy -245739.463770 kJ/mol
# GULP energy per Si atom -5584.987813 kJ/mol
# Density = 1.851794 g / cm^3
# Si number density = 18.560187 Si / 1000 Ang^3
#
#
#
# Elastic Constant Matrix: (Units=GPa)
#
#
# Indices 1 2 3 4 5 6 
#
# 1 92.8002 44.9988 39.9667 0.0000 0.0000 0.0000
# 2 44.9988 95.7360 36.0253 0.0000 0.0000 0.0000
# 3 39.9667 36.0253 84.8540 0.0000 0.0000 0.0000
# 4 0.0000 0.0000 0.0000 31.2782 0.0000 0.0000
# 5 0.0000 0.0000 0.0000 0.0000 -12.5347 0.0000
# 6 0.0000 0.0000 0.0000 0.0000 0.0000 21.3514
#
#
#
# Elastic Compliance Matrix: (Units=1/GPa)
#
#
# Indices 1 2 3 4 5 6 
#
# 1 0.015574 -0.005427 -0.005032 0.000000 0.000000 0.000000
# 2 -0.005427 0.014323 -0.003525 0.000000 0.000000 0.000000
# 3 -0.005032 -0.003525 0.015651 0.000000 0.000000 0.000000
# 4 0.000000 0.000000 0.000000 0.031971 0.000000 0.000000
# 5 0.000000 0.000000 0.000000 0.000000 -0.079779 0.000000
# 6 0.000000 0.000000 0.000000 0.000000 0.000000 0.046835
#
#
# Mechanical properties :
#
#
# Convention : Reuss Voigt Hill
#
# Bulk Modulus (GPa) = 56.87687 57.26354 57.07020
# Shear Modulus (GPa) = 63.77315 18.17893 40.97604
#
# Velocity S-wave (km/s) = 5.86812 3.13303 4.70376
# Velocity P-wave (km/s) = 8.75352 6.63383 7.76633
#
# Compressibility (1/GPa) = 0.01758184
#
# Stress axis : x y z
#
# Youngs Moduli (GPa) = 64.20808 69.81990 63.89286
#
# Poissons Ratio (x) = 0.37892 0.32148
# Poissons Ratio (y) = 0.34846 0.22519
# Poissons Ratio (z) = 0.32306 0.24608
#
# Static dielectric constant tensor:
#      x y z
#    x 1.670380 0.000000 0.000000 
#    y 0.000000 1.622200 0.000000 
#    z 0.000000 0.000000 1.625910 
# 
# From -- ./inp_files/47017.got.cif
#   From: 2010.05.17/outbox.cif.g08.bks.cpg/sg74_24_cif.got.tgz:47017.got - 2010.06.03 17:57:02.
