data_PCOD9534773
_publ_section_title
;
Structure prediction by ZEFSAII (Michael W. Deem and Ramdas Pophale) SiO2 
 PCOD9534773
Probable space group: I M M A
;
_chemical_formula_sum "Si O2"
_cell_formula_units_Z 116
_cell_length_a 29.846079
_cell_length_b 7.459533
_cell_length_c 23.718955
_cell_angle_alpha 90.000000
_cell_angle_beta 90.000000
_cell_angle_gamma 90.000000
_cell_volume 5280.736226
_symmetry_space_group_name_H-M "I M M A"
_symmetry_group_IT_number 74
_symmetry_cell_setting 'orthorhombic'
loop_
_space_group_symop_operation_xyz
x,y,z
-x,1/2-y,z
x,-y,-z
-x,1/2+y,-z
-x,-y,-z
x,1/2+y,-z
-x,y,z
x,1/2-y,z
1/2+x,1/2+y,1/2+z
1/2-x,-y,1/2+z
1/2+x,1/2-y,1/2-z
1/2-x,y,1/2-z
1/2-x,1/2-y,1/2-z
1/2+x,y,1/2-z
1/2-x,1/2+y,1/2+z
1/2+x,-y,1/2+z
loop_
_atom_site_type_symbol
_atom_site_label
_atom_site_fract_x
_atom_site_fract_y
_atom_site_fract_z
Si Si1 0.050315 0.533066 0.775419
Si Si2 0.000000 0.250000 0.945085
Si Si3 0.244769 0.037057 0.565081
Si Si4 0.166358 0.954989 0.871081
Si Si5 0.119028 0.962853 0.681654
Si Si6 0.301114 0.969851 0.747530
Si Si7 0.144315 0.960252 0.436393
Si Si8 0.573474 0.034153 0.406695
O O1 0.049595 0.750000 0.771446
O O2 0.083251 0.465986 0.726560
O O3 0.064038 0.497549 0.839890
O O4 0.000000 0.466894 0.766898
O O5 0.960607 0.408323 0.939816
O O6 0.245188 0.250000 0.575309
O O7 0.194452 0.961652 0.573301
O O8 0.255288 0.000000 0.500000
O O9 0.284741 0.958555 0.601649
O O10 0.152337 0.750000 0.860491
O O11 0.173620 0.033695 0.808947
O O12 0.126091 0.020219 0.910917
O O13 0.119438 0.750000 0.689685
O O14 0.168382 0.027294 0.700189
O O15 0.112565 0.992628 0.615527
O O16 0.299499 0.750000 0.745870
O O17 0.250000 0.031111 0.750000
O O18 0.150481 0.750000 0.434460
O O19 0.129291 0.000000 0.500000
O O20 0.566337 0.250000 0.417809
#
# Coordination Sequence:
#
# PCOD9534773 Si02
#       8
#    16   4  16  16  16  16  16  16
#     4   9  16  31  52  74 107 143 182 227 274 327
#     4  12  22  32  56  82 108 148 198 228 288 326
#     4  10  21  36  55  77 107 140 184 228 271 323
#     4  10  19  33  53  78 112 145 178 223 272 323
#     4  10  18  31  52  77 104 141 182 220 273 332
#     4   9  16  26  45  75 109 146 181 210 257 331
#     4  10  21  37  54  76 103 140 181 231 276 320
#     4  10  20  35  53  79 115 148 185 232 278 338
#
# _framework density 21.966633000000002
#
# number of rings (size 3 to 8) (size 9 to 14) (size 15 to 20)
#    0.000    2.207    2.069    1.862    0.966    2.759 
#    1.241    0.690    0.000    2.897    0.000    0.483 
#    0.000    0.000    0.000    0.000    0.000    0.138 
#
# Total GULP energy -323199.359276 kJ/mol
# GULP energy per Si atom -5572.402746 kJ/mol
# Density = 2.191664 g / cm^3
# Si number density = 21.966633 Si / 1000 Ang^3
#
#
#
# Elastic Constant Matrix: (Units=GPa)
#
#
# Indices 1 2 3 4 5 6 
#
# 1 50.2621 12.7626 11.7255 0.0000 0.0000 0.0000
# 2 12.7626 90.8477 -2.4737 0.0000 0.0000 0.0000
# 3 11.7255 -2.4737 86.0927 0.0000 0.0000 0.0000
# 4 0.0000 0.0000 0.0000 0.5155 0.0000 0.0000
# 5 0.0000 0.0000 0.0000 0.0000 7.0840 0.0000
# 6 0.0000 0.0000 0.0000 0.0000 0.0000 13.7339
#
#
#
# Elastic Compliance Matrix: (Units=1/GPa)
#
#
# Indices 1 2 3 4 5 6 
#
# 1 0.021379 -0.003085 -0.003000 0.000000 0.000000 0.000000
# 2 -0.003085 0.011461 0.000750 0.000000 0.000000 0.000000
# 3 -0.003000 0.000750 0.012046 0.000000 0.000000 0.000000
# 4 0.000000 0.000000 0.000000 1.939975 0.000000 0.000000
# 5 0.000000 0.000000 0.000000 0.000000 0.141163 0.000000
# 6 0.000000 0.000000 0.000000 0.000000 0.000000 0.072812
#
#
# Mechanical properties :
#
#
# Convention : Reuss Voigt Hill
#
# Bulk Modulus (GPa) = 29.22791 30.13679 29.68235
# Shear Modulus (GPa) = 2.25133 17.94588 10.09860
#
# Velocity S-wave (km/s) = 1.01346 2.86135 2.14645
# Velocity P-wave (km/s) = 3.83457 4.96645 4.43675
#
# Compressibility (1/GPa) = 0.03421387
#
# Stress axis : x y z
#
# Youngs Moduli (GPa) = 46.77482 87.25053 83.01807
#
# Poissons Ratio (x) = 0.26918 0.24909
# Poissons Ratio (y) = 0.14430 -0.06222
# Poissons Ratio (z) = 0.14034 -0.06539
#
# Static dielectric constant tensor:
#      x y z
#    x 1.832160 0.000000 0.000000 
#    y 0.000000 1.859540 0.000000 
#    z 0.000000 0.000000 1.823490 
# 
# From -- ./inp_files/62760.got.cif
#   From: 2010.05.17/outbox.cif.g08.bks.cpg/sg74_32_cif.got.tgz:62760.got - 2010.06.03 17:57:02.
