data_PCOD9534928
_publ_section_title
;
Structure prediction by ZEFSAII (Michael W. Deem and Ramdas Pophale) SiO2 
 PCOD9534928
Probable space group: I M M A
;
_chemical_formula_sum "Si O2"
_cell_formula_units_Z 104
_cell_length_a 8.969060
_cell_length_b 20.795026
_cell_length_c 26.196797
_cell_angle_alpha 90.000000
_cell_angle_beta 90.000000
_cell_angle_gamma 90.000000
_cell_volume 4886.012703
_symmetry_space_group_name_H-M "I M M A"
_symmetry_group_IT_number 74
_symmetry_cell_setting 'orthorhombic'
loop_
_space_group_symop_operation_xyz
x,y,z
-x,1/2-y,z
x,-y,-z
-x,1/2+y,-z
-x,-y,-z
x,1/2+y,-z
-x,y,z
x,1/2-y,z
1/2+x,1/2+y,1/2+z
1/2-x,-y,1/2+z
1/2+x,1/2-y,1/2-z
1/2-x,y,1/2-z
1/2-x,1/2-y,1/2-z
1/2+x,y,1/2-z
1/2-x,1/2+y,1/2+z
1/2+x,-y,1/2+z
loop_
_atom_site_type_symbol
_atom_site_label
_atom_site_fract_x
_atom_site_fract_y
_atom_site_fract_z
Si Si1 0.333297 0.673263 0.094848
Si Si2 0.681826 0.675548 0.979735
Si Si3 0.674347 0.126645 0.194760
Si Si4 0.677563 0.250000 0.307417
Si Si5 0.670209 0.508291 0.651284
Si Si6 0.175600 0.465579 0.445394
Si Si7 0.328524 0.870515 0.302950
O O1 0.500000 0.644051 0.097977
O O2 0.347354 0.750000 0.095402
O O3 0.270544 0.660222 0.038300
O O4 0.243927 0.655454 0.145235
O O5 0.500000 0.677353 0.980018
O O6 0.728852 0.750000 0.966530
O O7 0.720687 0.610552 0.948511
O O8 0.500000 0.139841 0.199362
O O9 0.750000 0.119888 0.250000
O O10 0.756729 0.186108 0.167887
O O11 0.710903 0.061154 0.167401
O O12 0.500000 0.250000 0.304296
O O13 0.750000 0.250000 0.250000
O O14 0.500000 0.532809 0.653420
O O15 0.720075 0.495260 0.593534
O O16 0.678499 0.447345 0.688103
O O17 0.186412 0.500000 0.500000
O O18 0.000000 0.467947 0.430737
O O19 0.500000 0.850573 0.300319
O O20 0.250000 0.852682 0.250000
#
# Coordination Sequence:
#
# PCOD9534928 Si02
#       7
#    16  16  16   8  16  16  16
#     4   9  18  35  61  89 116 149 188 230 280 339
#     4   8  15  31  56  85 115 147 185 232 284 340
#     4  11  21  36  58  83 111 146 188 232 282 337
#     4  10  18  32  54  80 110 144 182 224 270 324
#     4  11  24  40  56  80 112 149 192 239 293 344
#     4  10  20  35  58  85 111 146 191 239 291 350
#     4  11  24  39  57  81 112 151 192 237 289 343
#
# _framework density 21.285250000000001
#
# number of rings (size 3 to 8) (size 9 to 14) (size 15 to 20)
#    0.000    2.000    0.000    6.231    0.000    5.846 
#    1.385    0.769    0.000    0.923    0.000    0.000 
#    0.000    0.000    0.000    0.000    0.000    0.000 
#
# Total GULP energy -290136.815414 kJ/mol
# GULP energy per Si atom -5579.554143 kJ/mol
# Density = 2.123680 g / cm^3
# Si number density = 21.285250 Si / 1000 Ang^3
#
#
#
# Elastic Constant Matrix: (Units=GPa)
#
#
# Indices 1 2 3 4 5 6 
#
# 1 91.4322 0.1406 11.0523 0.0000 0.0000 0.0000
# 2 0.1406 34.1105 -6.8041 0.0000 0.0000 0.0000
# 3 11.0523 -6.8041 44.7088 0.0000 0.0000 0.0000
# 4 0.0000 0.0000 0.0000 33.6645 0.0000 0.0000
# 5 0.0000 0.0000 0.0000 0.0000 23.1045 0.0000
# 6 0.0000 0.0000 0.0000 0.0000 0.0000 19.8929
#
#
#
# Elastic Compliance Matrix: (Units=1/GPa)
#
#
# Indices 1 2 3 4 5 6 
#
# 1 0.011287 -0.000622 -0.002885 0.000000 0.000000 0.000000
# 2 -0.000622 0.030269 0.004760 0.000000 0.000000 0.000000
# 3 -0.002885 0.004760 0.023805 0.000000 0.000000 0.000000
# 4 0.000000 0.000000 0.000000 0.029705 0.000000 0.000000
# 5 0.000000 0.000000 0.000000 0.000000 0.043282 0.000000
# 6 0.000000 0.000000 0.000000 0.000000 0.000000 0.050269
#
#
# Mechanical properties :
#
#
# Convention : Reuss Voigt Hill
#
# Bulk Modulus (GPa) = 14.73475 19.89212 17.31343
# Shear Modulus (GPa) = 23.95430 26.38991 25.17211
#
# Velocity S-wave (km/s) = 3.35833 3.52493 3.44264
# Velocity P-wave (km/s) = 4.68779 5.09241 4.89428
#
# Compressibility (1/GPa) = 0.06786678
#
# Stress axis : x y z
#
# Youngs Moduli (GPa) = 88.59962 33.03758 42.00881
#
# Poissons Ratio (x) = 0.02055 0.12119
# Poissons Ratio (y) = 0.05510 -0.19997
# Poissons Ratio (z) = 0.25559 -0.15727
#
# Static dielectric constant tensor:
#      x y z
#    x 1.705760 0.000000 0.000000 
#    y 0.000000 1.860090 0.000000 
#    z 0.000000 0.000000 1.846150 
# 
# From -- ./inp_files/64493.got.cif
#   From: 2010.05.17/outbox.cif.g08.bks.cpg/sg74_33_cif.got.tgz:64493.got - 2010.06.03 17:57:02.
