data_PCOD9534570
_publ_section_title
;
Structure prediction by ZEFSAII (Michael W. Deem and Ramdas Pophale) SiO2 
 PCOD9534570
Probable space group: I M M A
;
_chemical_formula_sum "Si O2"
_cell_formula_units_Z 96
_cell_length_a 23.452225
_cell_length_b 9.006801
_cell_length_c 26.254383
_cell_angle_alpha 90.000000
_cell_angle_beta 90.000000
_cell_angle_gamma 90.000000
_cell_volume 5545.700813
_symmetry_space_group_name_H-M "I M M A"
_symmetry_group_IT_number 74
_symmetry_cell_setting 'orthorhombic'
loop_
_space_group_symop_operation_xyz
x,y,z
-x,1/2-y,z
x,-y,-z
-x,1/2+y,-z
-x,-y,-z
x,1/2+y,-z
-x,y,z
x,1/2-y,z
1/2+x,1/2+y,1/2+z
1/2-x,-y,1/2+z
1/2+x,1/2-y,1/2-z
1/2-x,y,1/2-z
1/2-x,1/2-y,1/2-z
1/2+x,y,1/2-z
1/2-x,1/2+y,1/2+z
1/2+x,-y,1/2+z
loop_
_atom_site_type_symbol
_atom_site_label
_atom_site_fract_x
_atom_site_fract_y
_atom_site_fract_z
Si Si1 0.676376 0.572264 0.445276
Si Si2 0.067121 0.427709 0.253120
Si Si3 0.309699 0.929061 0.054407
Si Si4 0.627116 0.921577 0.649482
Si Si5 0.244630 0.910960 0.689752
Si Si6 0.639469 0.923452 0.157448
O O1 0.663995 0.500000 0.500000
O O2 0.674078 0.750000 0.448164
O O3 0.743172 0.530595 0.433368
O O4 0.632815 0.513383 0.402488
O O5 0.076742 0.250000 0.253957
O O6 0.090847 0.479069 0.197826
O O7 0.099558 0.495472 0.301701
O O8 0.000000 0.457367 0.256515
O O9 0.311279 0.750000 0.051307
O O10 0.353977 0.975186 0.098694
O O11 0.322933 0.000000 0.000000
O O12 0.610051 0.750000 0.639169
O O13 0.692151 0.921085 0.668855
O O14 0.219674 0.750000 0.672892
O O15 0.250000 0.907247 0.750000
O O16 0.203839 0.045213 0.675955
O O17 0.625685 0.750000 0.157828
#
# Coordination Sequence:
#
# PCOD9534570 Si02
#       6
#    16  16  16  16  16  16
#     4  10  19  32  49  75 110 144 175 208 254 313
#     4  10  22  40  58  76 101 138 183 223 263 315
#     4   9  19  32  47  73 107 141 172 205 250 305
#     4  10  19  32  52  77 105 138 174 216 261 309
#     4  10  18  30  48  74 106 139 174 207 254 317
#     4  11  21  33  51  78 111 138 170 215 265 316
#
# _framework density 17.310707000000001
#
# number of rings (size 3 to 8) (size 9 to 14) (size 15 to 20)
#    0.000    2.000    3.333    1.000    0.000    3.333 
#    0.000    0.000    0.000    1.000    0.000    0.000 
#    0.000    0.000    0.000    0.000    0.000    0.000 
#
# Total GULP energy -267362.541045 kJ/mol
# GULP energy per Si atom -5570.052938 kJ/mol
# Density = 1.727131 g / cm^3
# Si number density = 17.310707 Si / 1000 Ang^3
#
#
#
# Elastic Constant Matrix: (Units=GPa)
#
#
# Indices 1 2 3 4 5 6 
#
# 1 51.8732 20.6594 46.9986 0.0000 0.0000 0.0000
# 2 20.6594 27.0111 41.1086 0.0000 0.0000 0.0000
# 3 46.9986 41.1086 147.0127 0.0000 0.0000 0.0000
# 4 0.0000 0.0000 0.0000 24.9307 0.0000 0.0000
# 5 0.0000 0.0000 0.0000 0.0000 8.1510 0.0000
# 6 0.0000 0.0000 0.0000 0.0000 0.0000 72.7277
#
#
#
# Elastic Compliance Matrix: (Units=1/GPa)
#
#
# Indices 1 2 3 4 5 6 
#
# 1 0.030115 -0.014590 -0.005548 0.000000 0.000000 0.000000
# 2 -0.014590 0.071518 -0.015334 0.000000 0.000000 0.000000
# 3 -0.005548 -0.015334 0.012863 0.000000 0.000000 0.000000
# 4 0.000000 0.000000 0.000000 0.040111 0.000000 0.000000
# 5 0.000000 0.000000 0.000000 0.000000 0.122685 0.000000
# 6 0.000000 0.000000 0.000000 0.000000 0.000000 0.013750
#
#
# Mechanical properties :
#
#
# Convention : Reuss Voigt Hill
#
# Bulk Modulus (GPa) = 22.96064 49.27002 36.11533
# Shear Modulus (GPa) = 13.28008 28.97057 21.12533
#
# Velocity S-wave (km/s) = 2.77277 4.09536 3.49716
# Velocity P-wave (km/s) = 4.85218 7.13348 6.10042
#
# Compressibility (1/GPa) = 0.04355280
#
# Stress axis : x y z
#
# Youngs Moduli (GPa) = 33.20614 13.98243 77.73958
#
# Poissons Ratio (x) = 0.20401 0.43127
# Poissons Ratio (y) = 0.48449 1.19206
# Poissons Ratio (z) = 0.18422 0.21441
#
# Static dielectric constant tensor:
#      x y z
#    x 1.568710 0.000000 0.000000 
#    y 0.000000 1.628200 0.000000 
#    z 0.000000 0.000000 1.634220 
# 
# From -- ./inp_files/57301.got.cif
#   From: 2010.05.17/outbox.cif.g08.bks.cpg/sg74_29_cif.got.tgz:57301.got - 2010.06.03 17:57:02.
