data_PCOD9534072
_publ_section_title
;
Structure prediction by ZEFSAII (Michael W. Deem and Ramdas Pophale) SiO2 
 PCOD9534072
Probable space group: I M M A
;
_chemical_formula_sum "Si O2"
_cell_formula_units_Z 80
_cell_length_a 8.511064
_cell_length_b 22.826994
_cell_length_c 18.635254
_cell_angle_alpha 90.000000
_cell_angle_beta 90.000000
_cell_angle_gamma 90.000000
_cell_volume 3620.494545
_symmetry_space_group_name_H-M "I M M A"
_symmetry_group_IT_number 74
_symmetry_cell_setting 'orthorhombic'
loop_
_space_group_symop_operation_xyz
x,y,z
-x,1/2-y,z
x,-y,-z
-x,1/2+y,-z
-x,-y,-z
x,1/2+y,-z
-x,y,z
x,1/2-y,z
1/2+x,1/2+y,1/2+z
1/2-x,-y,1/2+z
1/2+x,1/2-y,1/2-z
1/2-x,y,1/2-z
1/2-x,1/2-y,1/2-z
1/2+x,y,1/2-z
1/2-x,1/2+y,1/2+z
1/2+x,-y,1/2+z
loop_
_atom_site_type_symbol
_atom_site_label
_atom_site_fract_x
_atom_site_fract_y
_atom_site_fract_z
Si Si1 0.188711 0.560766 0.172453
Si Si2 0.183421 0.838581 0.825850
Si Si3 0.686396 0.812916 0.373662
Si Si4 0.814828 0.449080 0.389121
Si Si5 0.682292 0.841102 0.975687
O O1 0.250000 0.541328 0.250000
O O2 0.249690 0.626922 0.159500
O O3 0.253512 0.514420 0.115172
O O4 0.000000 0.560666 0.170307
O O5 0.250000 0.818437 0.750000
O O6 0.217852 0.908442 0.833661
O O7 0.269356 0.816313 0.897766
O O8 0.000000 0.826759 0.830330
O O9 0.500000 0.812310 0.360383
O O10 0.752501 0.750000 0.349104
O O11 0.716285 0.818772 0.458754
O O12 0.796305 0.411230 0.462118
O O13 0.000000 0.446854 0.371467
O O14 0.500000 0.829190 0.990133
#
# Coordination Sequence:
#
# PCOD9534072 Si02
#       5
#    16  16  16  16  16
#     4  11  23  38  59  87 119 155 196 242 296 355
#     4  10  17  29  51  81 118 155 189 227 277 339
#     4  10  23  43  63  83 112 154 202 250 298 348
#     4   9  19  34  54  84 120 152 186 231 286 348
#     4   9  20  36  57  87 118 153 195 240 291 350
#
# _framework density 22.096429000000001
#
# number of rings (size 3 to 8) (size 9 to 14) (size 15 to 20)
#    1.200    1.000    0.000    3.600    0.000    3.200 
#    0.000    4.000    0.000    0.600    0.000    0.000 
#    0.000    0.000    0.000    0.000    0.000    0.000 
#
# Total GULP energy -223060.723244 kJ/mol
# GULP energy per Si atom -5576.518081 kJ/mol
# Density = 2.204614 g / cm^3
# Si number density = 22.096429 Si / 1000 Ang^3
#
#
#
# Elastic Constant Matrix: (Units=GPa)
#
#
# Indices 1 2 3 4 5 6 
#
# 1 38.7102 19.3458 -16.1411 0.0000 0.0000 0.0000
# 2 19.3458 153.6753 -1.0433 0.0000 0.0000 0.0000
# 3 -16.1411 -1.0433 36.4458 0.0001 0.0000 0.0000
# 4 0.0000 0.0000 0.0001 -46.5426 0.0000 0.0000
# 5 0.0000 0.0000 0.0000 0.0000 19.5612 0.0000
# 6 0.0000 0.0000 0.0000 0.0000 0.0000 -28.5610
#
#
#
# Elastic Compliance Matrix: (Units=1/GPa)
#
#
# Indices 1 2 3 4 5 6 
#
# 1 0.034199 -0.004203 0.015026 0.000000 0.000000 0.000000
# 2 -0.004203 0.007025 -0.001660 0.000000 0.000000 0.000000
# 3 0.015026 -0.001660 0.034045 0.000000 0.000000 0.000000
# 4 0.000000 0.000000 0.000000 -0.021486 0.000000 0.000000
# 5 0.000000 0.000000 0.000000 0.000000 0.051122 0.000000
# 6 0.000000 0.000000 0.000000 0.000000 0.000000 -0.035013
#
#
# Mechanical properties :
#
#
# Convention : Reuss Voigt Hill
#
# Bulk Modulus (GPa) = 10.68458 25.90604 18.29531
# Shear Modulus (GPa) = 60.41145 4.00284 32.20715
#
# Velocity S-wave (km/s) = 5.23443 1.34739 3.82196
# Velocity P-wave (km/s) = 6.43260 3.76433 5.27013
#
# Compressibility (1/GPa) = 0.09359284
#
# Stress axis : x y z
#
# Youngs Moduli (GPa) = 29.24077 142.34705 29.37292
#
# Poissons Ratio (x) = 0.59831 -0.44135
# Poissons Ratio (y) = 0.12290 0.04877
# Poissons Ratio (z) = -0.43936 0.23635
#
# Static dielectric constant tensor:
#      x y z
#    x 1.735530 0.000000 0.000000 
#    y 0.000000 1.923330 0.000000 
#    z 0.000000 0.000000 1.785460 
# 
# From -- ./inp_files/39735.got.cif
#   From: 2010.05.17/outbox.cif.g08.bks.cpg/sg74_20_cif.got.tgz:39735.got - 2010.06.03 17:57:02.
