data_PCOD9534829
_publ_section_title
;
Structure prediction by ZEFSAII (Michael W. Deem and Ramdas Pophale) SiO2 
 PCOD9534829
Probable space group: I M M A
;
_chemical_formula_sum "Si O2"
_cell_formula_units_Z 100
_cell_length_a 24.366232
_cell_length_b 7.730001
_cell_length_c 30.472236
_cell_angle_alpha 90.000000
_cell_angle_beta 90.000000
_cell_angle_gamma 90.000000
_cell_volume 5739.476054
_symmetry_space_group_name_H-M "I M M A"
_symmetry_group_IT_number 74
_symmetry_cell_setting 'orthorhombic'
loop_
_space_group_symop_operation_xyz
x,y,z
-x,1/2-y,z
x,-y,-z
-x,1/2+y,-z
-x,-y,-z
x,1/2+y,-z
-x,y,z
x,1/2-y,z
1/2+x,1/2+y,1/2+z
1/2-x,-y,1/2+z
1/2+x,1/2-y,1/2-z
1/2-x,y,1/2-z
1/2-x,1/2-y,1/2-z
1/2+x,y,1/2-z
1/2-x,1/2+y,1/2+z
1/2+x,-y,1/2+z
loop_
_atom_site_type_symbol
_atom_site_label
_atom_site_fract_x
_atom_site_fract_y
_atom_site_fract_z
Si Si1 0.580431 0.443215 0.233624
Si Si2 0.595263 0.540849 0.331366
Si Si3 0.678001 0.544726 0.547831
Si Si4 0.216076 0.955014 0.141303
Si Si5 0.795923 0.540856 0.286464
Si Si6 0.000000 0.250000 0.707964
Si Si7 0.441201 0.043809 0.427679
O O1 0.563704 0.250000 0.220931
O O2 0.572602 0.468085 0.286118
O O3 0.645248 0.464045 0.224355
O O4 0.547428 0.596862 0.210881
O O5 0.594196 0.750000 0.328223
O O6 0.658256 0.479750 0.338824
O O7 0.564053 0.487301 0.375468
O O8 0.699852 0.500000 0.500000
O O9 0.674247 0.750000 0.551761
O O10 0.712875 0.483789 0.589405
O O11 0.615563 0.471789 0.552517
O O12 0.214762 0.750000 0.149105
O O13 0.268810 0.018920 0.167660
O O14 0.802607 0.750000 0.286130
O O15 0.750000 0.499647 0.250000
O O16 0.500000 0.972624 0.443165
O O17 0.441602 0.250000 0.435421
#
# Coordination Sequence:
#
# PCOD9534829 Si02
#       7
#    16  16  16  16  16   4  16
#     4  12  24  37  56  77 104 147 188 233 278 327
#     4  10  18  32  47  70 102 133 170 224 275 325
#     4  10  20  34  50  68  96 128 171 221 274 336
#     4   9  18  32  55  76 103 137 171 211 274 333
#     4  10  18  35  58  82 113 143 176 228 281 331
#     4  12  26  44  50  70 108 148 198 226 272 330
#     4   9  19  32  45  64  89 124 174 230 273 320
#
# _framework density 17.423193000000001
#
# number of rings (size 3 to 8) (size 9 to 14) (size 15 to 20)
#    0.000    1.920    3.200    1.200    1.120    2.880 
#    0.000    0.000    0.000    0.000    0.000    0.000 
#    0.000    0.000    0.000    0.720    3.520    0.960 
#
# Total GULP energy -278590.068309 kJ/mol
# GULP energy per Si atom -5571.801366 kJ/mol
# Density = 1.738354 g / cm^3
# Si number density = 17.423193 Si / 1000 Ang^3
#
#
#
# Elastic Constant Matrix: (Units=GPa)
#
#
# Indices 1 2 3 4 5 6 
#
# 1 85.5177 20.1201 21.9675 0.0000 0.0000 0.0000
# 2 20.1201 75.1176 -5.7844 0.0000 0.0000 0.0000
# 3 21.9675 -5.7844 62.6162 0.0000 0.0000 0.0000
# 4 0.0000 0.0000 0.0000 15.3140 0.0000 0.0000
# 5 0.0000 0.0000 0.0000 0.0000 -6.5778 0.0000
# 6 0.0000 0.0000 0.0000 0.0000 0.0000 -397.5313
#
#
#
# Elastic Compliance Matrix: (Units=1/GPa)
#
#
# Indices 1 2 3 4 5 6 
#
# 1 0.014038 -0.004169 -0.005310 0.000000 0.000000 0.000000
# 2 -0.004169 0.014646 0.002816 0.000000 0.000000 0.000000
# 3 -0.005310 0.002816 0.018093 0.000000 0.000000 0.000000
# 4 0.000000 0.000000 0.000000 0.065300 0.000000 0.000000
# 5 0.000000 0.000000 0.000000 0.000000 -0.152025 0.000000
# 6 0.000000 0.000000 0.000000 0.000000 0.000000 -0.002516
#
#
# Mechanical properties :
#
#
# Convention : Reuss Voigt Hill
#
# Bulk Modulus (GPa) = 29.89500 32.87310 31.38405
# Shear Modulus (GPa) = -277.99289 -65.29579 -171.64434
#
# Velocity S-wave (km/s) = -12.64515 -6.12844 -9.93623
# Velocity P-wave (km/s) = 14.00015 5.58288 10.65769
#
# Compressibility (1/GPa) = 0.03345041
#
# Stress axis : x y z
#
# Youngs Moduli (GPa) = 71.23307 68.27823 55.26887
#
# Poissons Ratio (x) = 0.28466 0.29349
# Poissons Ratio (y) = 0.29698 -0.15562
# Poissons Ratio (z) = 0.37826 -0.19224
#
# Static dielectric constant tensor:
#      x y z
#    x 1.626160 0.000000 0.000000 
#    y 0.000000 1.636060 0.000000 
#    z 0.000000 0.000000 1.550920 
# 
# From -- ./inp_files/73355.got.cif
#   From: 2010.05.17/outbox.cif.g08.bks.cpg/sg74_37_cif.got.tgz:73355.got - 2010.06.03 17:57:02.
