data_PCOD9534634
_publ_section_title
;
Structure prediction by ZEFSAII (Michael W. Deem and Ramdas Pophale) SiO2 
 PCOD9534634
Probable space group: I M M A
;
_chemical_formula_sum "Si O2"
_cell_formula_units_Z 116
_cell_length_a 7.496214
_cell_length_b 28.997637
_cell_length_c 28.349530
_cell_angle_alpha 90.000000
_cell_angle_beta 90.000000
_cell_angle_gamma 90.000000
_cell_volume 6162.407996
_symmetry_space_group_name_H-M "I M M A"
_symmetry_group_IT_number 74
_symmetry_cell_setting 'orthorhombic'
loop_
_space_group_symop_operation_xyz
x,y,z
-x,1/2-y,z
x,-y,-z
-x,1/2+y,-z
-x,-y,-z
x,1/2+y,-z
-x,y,z
x,1/2-y,z
1/2+x,1/2+y,1/2+z
1/2-x,-y,1/2+z
1/2+x,1/2-y,1/2-z
1/2-x,y,1/2-z
1/2-x,1/2-y,1/2-z
1/2+x,y,1/2-z
1/2-x,1/2+y,1/2+z
1/2+x,-y,1/2+z
loop_
_atom_site_type_symbol
_atom_site_label
_atom_site_fract_x
_atom_site_fract_y
_atom_site_fract_z
Si Si1 0.782214 0.986016 0.052954
Si Si2 0.216778 0.675102 0.938350
Si Si3 0.000000 0.250000 0.407129
Si Si4 0.711419 0.436971 0.803796
Si Si5 0.290347 0.107879 0.599227
Si Si6 0.705584 0.577357 0.600690
Si Si7 0.288467 0.457999 0.196406
Si Si8 0.215618 0.698094 0.048204
O O1 0.716045 0.028390 0.084770
O O2 0.000000 0.983693 0.055628
O O3 0.716277 0.936582 0.071143
O O4 0.735516 0.000000 0.000000
O O5 0.341553 0.710204 0.910529
O O6 0.272866 0.623485 0.923516
O O7 0.000000 0.680554 0.930766
O O8 0.250557 0.684673 0.993810
O O9 0.500000 0.439656 0.808623
O O10 0.750000 0.422512 0.750000
O O11 0.775535 0.403971 0.845491
O O12 0.783762 0.489428 0.809879
O O13 0.500000 0.109578 0.587628
O O14 0.217391 0.156958 0.581805
O O15 0.500000 0.575638 0.585455
O O16 0.714895 0.576184 0.657074
O O17 0.500000 0.459493 0.190312
O O18 0.250000 0.444420 0.250000
O O19 0.283485 0.750000 0.057187
O O20 0.000000 0.700395 0.052930
#
# Coordination Sequence:
#
# PCOD9534634 Si02
#       8
#    16  16   4  16  16  16  16  16
#     4   9  16  27  46  74 106 143 180 208 250 327
#     4  10  21  37  56  82 115 147 187 236 280 328
#     4  12  22  36  60  82 108 148 202 236 282 318
#     4  10  20  34  51  74 104 140 178 225 271 326
#     4  10  18  30  52  77 103 142 181 219 270 327
#     4  10  19  32  53  79 112 143 175 219 272 325
#     4  10  20  33  52  75 109 142 178 220 269 327
#     4   9  17  33  54  76 108 143 184 231 275 319
#
# _framework density 18.823809000000001
#
# number of rings (size 3 to 8) (size 9 to 14) (size 15 to 20)
#    0.000    2.207    2.069    1.862    0.966    4.414 
#    1.241    0.000    0.000    1.241    0.000    0.483 
#    0.000    0.000    0.000    0.000    0.000    0.000 
#
# Total GULP energy -322950.189547 kJ/mol
# GULP energy per Si atom -5568.106716 kJ/mol
# Density = 1.878097 g / cm^3
# Si number density = 18.823809 Si / 1000 Ang^3
#
#
#
# Elastic Constant Matrix: (Units=GPa)
#
#
# Indices 1 2 3 4 5 6 
#
# 1 64.9285 17.1852 -6.4759 0.0000 0.0000 0.0000
# 2 17.1852 170.4498 72.4476 0.0000 0.0000 0.0000
# 3 -6.4759 72.4476 80.9276 0.0000 0.0000 0.0000
# 4 0.0000 0.0000 0.0000 0.8224 0.0000 0.0000
# 5 0.0000 0.0000 0.0000 0.0000 9.8828 0.0000
# 6 0.0000 0.0000 0.0000 0.0000 0.0000 7.4558
#
#
#
# Elastic Compliance Matrix: (Units=1/GPa)
#
#
# Indices 1 2 3 4 5 6 
#
# 1 0.016833 -0.003664 0.004627 0.000000 0.000000 0.000000
# 2 -0.003664 0.010268 -0.009485 0.000000 0.000000 0.000000
# 3 0.004627 -0.009485 0.021218 0.000000 0.000000 0.000000
# 4 0.000000 0.000000 0.000000 1.215885 0.000000 0.000000
# 5 0.000000 0.000000 0.000000 0.000000 0.101186 0.000000
# 6 0.000000 0.000000 0.000000 0.000000 0.000000 0.134123
#
#
# Mechanical properties :
#
#
# Convention : Reuss Voigt Hill
#
# Bulk Modulus (GPa) = 31.97477 53.62442 42.79960
# Shear Modulus (GPa) = 3.27444 19.17548 11.22496
#
# Velocity S-wave (km/s) = 1.32034 3.19514 2.44461
# Velocity P-wave (km/s) = 4.39859 6.49317 5.54567
#
# Compressibility (1/GPa) = 0.03127465
#
# Stress axis : x y z
#
# Youngs Moduli (GPa) = 59.40813 97.39313 47.12979
#
# Poissons Ratio (x) = 0.35681 -0.21806
# Poissons Ratio (y) = 0.21765 0.44702
# Poissons Ratio (z) = -0.27486 0.92377
#
# Static dielectric constant tensor:
#      x y z
#    x 1.715280 0.000000 0.000000 
#    y 0.000000 1.675480 0.000000 
#    z 0.000000 0.000000 1.658640 
# 
# From -- ./inp_files/71045.got.cif
#   From: 2010.05.17/outbox.cif.g08.bks.cpg/sg74_36_cif.got.tgz:71045.got - 2010.06.03 17:57:02.
