data_PCOD9534024
_publ_section_title
;
Structure prediction by ZEFSAII (Michael W. Deem and Ramdas Pophale) SiO2 
 PCOD9534024
Probable space group: I M M A
;
_chemical_formula_sum "Si O2"
_cell_formula_units_Z 104
_cell_length_a 8.833793
_cell_length_b 27.102623
_cell_length_c 29.757865
_cell_angle_alpha 90.000000
_cell_angle_beta 90.000000
_cell_angle_gamma 90.000000
_cell_volume 7124.597130
_symmetry_space_group_name_H-M "I M M A"
_symmetry_group_IT_number 74
_symmetry_cell_setting 'orthorhombic'
loop_
_space_group_symop_operation_xyz
x,y,z
-x,1/2-y,z
x,-y,-z
-x,1/2+y,-z
-x,-y,-z
x,1/2+y,-z
-x,y,z
x,1/2-y,z
1/2+x,1/2+y,1/2+z
1/2-x,-y,1/2+z
1/2+x,1/2-y,1/2-z
1/2-x,y,1/2-z
1/2-x,1/2-y,1/2-z
1/2+x,y,1/2-z
1/2-x,1/2+y,1/2+z
1/2+x,-y,1/2+z
loop_
_atom_site_type_symbol
_atom_site_label
_atom_site_fract_x
_atom_site_fract_y
_atom_site_fract_z
Si Si1 0.673047 0.098073 0.205194
Si Si2 0.323039 0.836693 0.639647
Si Si3 0.682940 0.593838 0.564987
Si Si4 0.680369 0.250000 0.199240
Si Si5 0.825284 0.445359 0.522253
Si Si6 0.680977 0.011640 0.608029
Si Si7 0.671683 0.979791 0.204011
O O1 0.500000 0.115932 0.198391
O O2 0.750000 0.118717 0.250000
O O3 0.790485 0.113557 0.167339
O O4 0.664682 0.039367 0.208572
O O5 0.500000 0.823720 0.638799
O O6 0.272537 0.855449 0.590451
O O7 0.234722 0.796144 0.668609
O O8 0.500000 0.592696 0.564001
O O9 0.747878 0.589026 0.515010
O O10 0.732251 0.543709 0.591892
O O11 0.500000 0.250000 0.203995
O O12 0.750000 0.250000 0.250000
O O13 0.821007 0.500000 0.500000
O O14 0.739456 0.451664 0.569247
O O15 0.000000 0.431970 0.529290
O O16 0.500000 0.010962 0.609177
O O17 0.743292 0.026852 0.656752
O O18 0.500000 0.961265 0.201050
O O19 0.750000 0.961589 0.250000
#
# Coordination Sequence:
#
# PCOD9534024 Si02
#       7
#    16  16  16   8  16  16  16
#     4  10  19  29  42  58  76  98 126 162 202 247
#     4  11  21  35  51  65  81 101 129 167 212 261
#     4   9  18  30  45  63  81 103 130 162 204 253
#     4  12  26  42  54  66  82 106 138 176 225 274
#     4   9  17  27  41  61  84 107 131 161 198 242
#     4  10  17  28  43  60  83 109 135 165 204 245
#     4  10  19  28  39  56  79 105 136 168 202 241
#
# _framework density 14.597317
#
# number of rings (size 3 to 8) (size 9 to 14) (size 15 to 20)
#    0.000    2.000    1.538    3.462    0.000    4.923 
#    0.000    0.000    0.000    0.000    0.000    0.000 
#    0.000    0.000    0.000    0.000    0.000    0.000 
#
# Total GULP energy -289493.205622 kJ/mol
# GULP energy per Si atom -5567.177031 kJ/mol
# Density = 1.456409 g / cm^3
# Si number density = 14.597317 Si / 1000 Ang^3
#
#
#
# Elastic Constant Matrix: (Units=GPa)
#
#
# Indices 1 2 3 4 5 6 
#
# 1 62.9657 18.1240 52.7838 0.0000 0.0000 0.0000
# 2 18.1240 29.7362 31.1534 0.0000 0.0000 0.0000
# 3 52.7838 31.1534 134.0181 0.0000 0.0000 0.0000
# 4 0.0000 0.0000 0.0000 13.3373 0.0000 0.0000
# 5 0.0000 0.0000 0.0000 0.0000 25.9306 0.0000
# 6 0.0000 0.0000 0.0000 0.0000 0.0000 12.2219
#
#
#
# Elastic Compliance Matrix: (Units=1/GPa)
#
#
# Indices 1 2 3 4 5 6 
#
# 1 0.024598 -0.006402 -0.008200 0.000000 0.000000 0.000000
# 2 -0.006402 0.046121 -0.008200 0.000000 0.000000 0.000000
# 3 -0.008200 -0.008200 0.012597 0.000000 0.000000 0.000000
# 4 0.000000 0.000000 0.000000 0.074977 0.000000 0.000000
# 5 0.000000 0.000000 0.000000 0.000000 0.038564 0.000000
# 6 0.000000 0.000000 0.000000 0.000000 0.000000 0.081820
#
#
# Mechanical properties :
#
#
# Convention : Reuss Voigt Hill
#
# Bulk Modulus (GPa) = 26.51533 47.87136 37.19335
# Shear Modulus (GPa) = 14.84321 18.60857 16.72589
#
# Velocity S-wave (km/s) = 3.19226 3.57430 3.38867
# Velocity P-wave (km/s) = 5.63838 7.06399 6.39106
#
# Compressibility (1/GPa) = 0.03771403
#
# Stress axis : x y z
#
# Youngs Moduli (GPa) = 40.65306 21.68187 79.38111
#
# Poissons Ratio (x) = 0.13880 0.65093
# Poissons Ratio (y) = 0.26025 0.65092
# Poissons Ratio (z) = 0.33336 0.17779
#
# Static dielectric constant tensor:
#      x y z
#    x 1.503190 0.000000 0.000000 
#    y 0.000000 1.490120 0.000000 
#    z 0.000000 0.000000 1.533590 
# 
# From -- ./inp_files/62663.got.cif
#   From: 2010.05.17/outbox.cif.g08.bks.cpg/sg74_32_cif.got.tgz:62663.got - 2010.06.03 17:57:02.
