data_PCOD9534019
_publ_section_title
;
Structure prediction by ZEFSAII (Michael W. Deem and Ramdas Pophale) SiO2 
 PCOD9534019
Probable space group: I M M A
;
_chemical_formula_sum "Si O2"
_cell_formula_units_Z 56
_cell_length_a 20.779516
_cell_length_b 13.885373
_cell_length_c 10.248237
_cell_angle_alpha 90.000000
_cell_angle_beta 90.000000
_cell_angle_gamma 90.000000
_cell_volume 2956.937456
_symmetry_space_group_name_H-M "I M M A"
_symmetry_group_IT_number 74
_symmetry_cell_setting 'orthorhombic'
loop_
_space_group_symop_operation_xyz
x,y,z
-x,1/2-y,z
x,-y,-z
-x,1/2+y,-z
-x,-y,-z
x,1/2+y,-z
-x,y,z
x,1/2-y,z
1/2+x,1/2+y,1/2+z
1/2-x,-y,1/2+z
1/2+x,1/2-y,1/2-z
1/2-x,y,1/2-z
1/2-x,1/2-y,1/2-z
1/2+x,y,1/2-z
1/2-x,1/2+y,1/2+z
1/2+x,-y,1/2+z
loop_
_atom_site_type_symbol
_atom_site_label
_atom_site_fract_x
_atom_site_fract_y
_atom_site_fract_z
Si Si1 0.892534 0.487563 0.769588
Si Si2 0.206114 0.000000 0.000000
Si Si3 0.000000 0.863543 0.771966
Si Si4 0.000000 0.137277 0.912327
Si Si5 0.297083 0.641099 0.122962
O O1 0.838363 0.516420 0.874316
O O2 0.938872 0.414627 0.848784
O O3 0.856562 0.427873 0.657621
O O4 0.936867 0.577161 0.727157
O O5 0.252251 0.091602 0.983767
O O6 0.000000 0.750000 0.740207
O O7 0.000000 0.873198 0.930930
O O8 0.000000 0.250000 0.882391
O O9 0.316786 0.750000 0.093348
O O10 0.250000 0.644008 0.250000
#
# Coordination Sequence:
#
# PCOD9534019 Si02
#       5
#    16   8   8   8  16
#     4  10  17  32  48  74 104 129 164 204 246 295
#     4  10  18  31  48  73 104 132 160 206 242 288
#     4  10  19  29  48  73 101 132 157 199 260 302
#     4  10  17  27  50  75  97 129 161 206 256 295
#     4   9  19  32  50  72  98 136 171 201 239 289
#
# _framework density 18.938513
#
# number of rings (size 3 to 8) (size 9 to 14) (size 15 to 20)
#    0.000    2.286    2.857    1.714    0.000    2.286 
#    0.000    1.429    0.000    8.571    0.000    2.000 
#    0.000    0.000    0.000    0.000    0.000    0.000 
#
# Total GULP energy -156189.211503 kJ/mol
# GULP energy per Si atom -5578.186125 kJ/mol
# Density = 1.889541 g / cm^3
# Si number density = 18.938513 Si / 1000 Ang^3
#
#
#
# Elastic Constant Matrix: (Units=GPa)
#
#
# Indices 1 2 3 4 5 6 
#
# 1 128.1677 88.7664 32.7940 0.0000 0.0000 0.0000
# 2 88.7664 176.0934 27.5069 0.0000 0.0000 0.0000
# 3 32.7940 27.5069 15.2212 0.0000 0.0000 0.0000
# 4 0.0000 0.0000 0.0000 19.6388 0.0000 0.0000
# 5 0.0000 0.0000 0.0000 0.0000 0.6521 0.0000
# 6 0.0000 0.0000 0.0000 0.0000 0.0000 18.0157
#
#
#
# Elastic Compliance Matrix: (Units=1/GPa)
#
#
# Indices 1 2 3 4 5 6 
#
# 1 0.019753 -0.004611 -0.034224 0.000000 0.000000 0.000000
# 2 -0.004611 0.008989 -0.006310 0.000000 0.000000 0.000000
# 3 -0.034224 -0.006310 0.150836 0.000000 0.000000 0.000000
# 4 0.000000 0.000000 0.000000 0.050920 0.000000 0.000000
# 5 0.000000 0.000000 0.000000 0.000000 1.533594 0.000000
# 6 0.000000 0.000000 0.000000 0.000000 0.000000 0.055507
#
#
# Mechanical properties :
#
#
# Convention : Reuss Voigt Hill
#
# Bulk Modulus (GPa) = 11.19971 68.62413 39.91192
# Shear Modulus (GPa) = 2.57778 19.02232 10.80005
#
# Velocity S-wave (km/s) = 1.16794 3.17271 2.39062
# Velocity P-wave (km/s) = 2.78305 7.05233 5.36100
#
# Compressibility (1/GPa) = 0.08928801
#
# Stress axis : x y z
#
# Youngs Moduli (GPa) = 50.62600 111.25012 6.62970
#
# Poissons Ratio (x) = 0.51298 0.22690
# Poissons Ratio (y) = 0.23344 0.04183
# Poissons Ratio (z) = 1.73264 0.70194
#
# Static dielectric constant tensor:
#      x y z
#    x 1.663910 0.000000 0.000000 
#    y 0.000000 1.659360 0.000000 
#    z 0.000000 0.000000 1.647080 
# 
# From -- ./inp_files/33722.got.cif
#   From: 2010.05.17/outbox.cif.g08.bks.cpg/sg74_17_cif.got.tgz:33722.got - 2010.06.03 17:57:02.
