data_PCOD9534939
_publ_section_title
;
Structure prediction by ZEFSAII (Michael W. Deem and Ramdas Pophale) SiO2 
 PCOD9534939
Probable space group: I M M A
;
_chemical_formula_sum "Si O2"
_cell_formula_units_Z 112
_cell_length_a 21.706521
_cell_length_b 26.164095
_cell_length_c 11.108806
_cell_angle_alpha 90.000000
_cell_angle_beta 90.000000
_cell_angle_gamma 90.000000
_cell_volume 6309.040606
_symmetry_space_group_name_H-M "I M M A"
_symmetry_group_IT_number 74
_symmetry_cell_setting 'orthorhombic'
loop_
_space_group_symop_operation_xyz
x,y,z
-x,1/2-y,z
x,-y,-z
-x,1/2+y,-z
-x,-y,-z
x,1/2+y,-z
-x,y,z
x,1/2-y,z
1/2+x,1/2+y,1/2+z
1/2-x,-y,1/2+z
1/2+x,1/2-y,1/2-z
1/2-x,y,1/2-z
1/2-x,1/2-y,1/2-z
1/2+x,y,1/2-z
1/2-x,1/2+y,1/2+z
1/2+x,-y,1/2+z
loop_
_atom_site_type_symbol
_atom_site_label
_atom_site_fract_x
_atom_site_fract_y
_atom_site_fract_z
Si Si1 0.570507 0.191960 0.145011
Si Si2 0.168097 0.133971 0.510299
Si Si3 0.274699 0.309742 0.387778
Si Si4 0.069715 0.446217 0.929444
Si Si5 0.675769 0.065615 0.771299
Si Si6 0.891276 0.878187 0.859684
Si Si7 0.683008 0.548871 0.812164
O O1 0.500000 0.194566 0.108232
O O2 0.594660 0.250000 0.161459
O O3 0.609535 0.161681 0.046890
O O4 0.575180 0.160295 0.268667
O O5 0.223568 0.172796 0.482945
O O6 0.159624 0.113073 0.643445
O O7 0.183323 0.084121 0.429282
O O8 0.288904 0.250000 0.398194
O O9 0.250000 0.318436 0.250000
O O10 0.332873 0.345911 0.404759
O O11 0.128014 0.437352 0.840648
O O12 0.000000 0.447052 0.874779
O O13 0.077945 0.500000 0.000000
O O14 0.072366 0.402018 0.030149
O O15 0.750000 0.069590 0.750000
O O16 0.667601 0.010105 0.833746
O O17 0.864991 0.924953 0.779377
O O18 0.750000 0.550909 0.750000
#
# Coordination Sequence:
#
# PCOD9534939 Si02
#       7
#    16  16  16  16  16  16  16
#     4  10  21  36  58  85 110 143 190 243 298 350
#     4  11  20  35  54  85 118 151 186 237 299 352
#     4  11  19  31  57  91 119 147 186 242 307 364
#     4  11  24  41  60  84 120 167 209 245 293 360
#     4  11  24  36  58  85 121 161 201 243 288 356
#     4  11  18  35  60  85 115 149 190 248 292 351
#     4  10  18  32  54  86 119 152 186 235 287 355
#
# _framework density 17.752302
#
# number of rings (size 3 to 8) (size 9 to 14) (size 15 to 20)
#    0.000    1.286    5.714    2.571    0.000    0.571 
#    0.000    0.000    0.000   12.000    0.000    2.000 
#    0.000    0.000    0.000    0.000    0.000    0.000 
#
# Total GULP energy -312351.845267 kJ/mol
# GULP energy per Si atom -5577.711523 kJ/mol
# Density = 1.771190 g / cm^3
# Si number density = 17.752302 Si / 1000 Ang^3
#
#
#
# Elastic Constant Matrix: (Units=GPa)
#
#
# Indices 1 2 3 4 5 6 
#
# 1 102.9390 32.2426 38.4819 0.0000 0.0000 0.0000
# 2 32.2426 110.0165 35.5155 0.0000 0.0000 0.0000
# 3 38.4819 35.5155 59.0552 0.0000 0.0000 0.0000
# 4 0.0000 0.0000 0.0000 28.2376 0.0000 0.0000
# 5 0.0000 0.0000 0.0000 0.0000 14.8468 0.0000
# 6 0.0000 0.0000 0.0000 0.0000 0.0000 310.8903
#
#
#
# Elastic Compliance Matrix: (Units=1/GPa)
#
#
# Indices 1 2 3 4 5 6 
#
# 1 0.012999 -0.001334 -0.007668 0.000000 0.000000 0.000000
# 2 -0.001334 0.011416 -0.005996 0.000000 0.000000 0.000000
# 3 -0.007668 -0.005996 0.025536 0.000000 0.000000 0.000000
# 4 0.000000 0.000000 0.000000 0.035414 0.000000 0.000000
# 5 0.000000 0.000000 0.000000 0.000000 0.067355 0.000000
# 6 0.000000 0.000000 0.000000 0.000000 0.000000 0.003217
#
#
# Mechanical properties :
#
#
# Convention : Reuss Voigt Hill
#
# Bulk Modulus (GPa) = 50.11460 53.83228 51.97344
# Shear Modulus (GPa) = 25.96258 81.84631 53.90445
#
# Velocity S-wave (km/s) = 3.82840 6.79740 5.51640
# Velocity P-wave (km/s) = 6.91617 9.59147 8.36151
#
# Compressibility (1/GPa) = 0.01995426
#
# Stress axis : x y z
#
# Youngs Moduli (GPa) = 76.92924 87.59415 39.16020
#
# Poissons Ratio (x) = 0.11687 0.30028
# Poissons Ratio (y) = 0.10264 0.23482
# Poissons Ratio (z) = 0.58990 0.52524
#
# Static dielectric constant tensor:
#      x y z
#    x 1.622670 0.000000 0.000000 
#    y 0.000000 1.596780 0.000000 
#    z 0.000000 0.000000 1.618520 
# 
# From -- ./inp_files/24189.got.cif
#   From: 2010.05.17/outbox.cif.g08.bks.cpg/sg74_13_cif.got.tgz:24189.got - 2010.06.03 17:57:02.
