data_PCOD9534690
_publ_section_title
;
Structure prediction by ZEFSAII (Michael W. Deem and Ramdas Pophale) SiO2 
 PCOD9534690
Probable space group: I M M A
;
_chemical_formula_sum "Si O2"
_cell_formula_units_Z 88
_cell_length_a 20.687022
_cell_length_b 7.534832
_cell_length_c 31.751054
_cell_angle_alpha 90.000000
_cell_angle_beta 90.000000
_cell_angle_gamma 90.000000
_cell_volume 4949.139513
_symmetry_space_group_name_H-M "I M M A"
_symmetry_group_IT_number 74
_symmetry_cell_setting 'orthorhombic'
loop_
_space_group_symop_operation_xyz
x,y,z
-x,1/2-y,z
x,-y,-z
-x,1/2+y,-z
-x,-y,-z
x,1/2+y,-z
-x,y,z
x,1/2-y,z
1/2+x,1/2+y,1/2+z
1/2-x,-y,1/2+z
1/2+x,1/2-y,1/2-z
1/2-x,y,1/2-z
1/2-x,1/2-y,1/2-z
1/2+x,y,1/2-z
1/2-x,1/2+y,1/2+z
1/2+x,-y,1/2+z
loop_
_atom_site_type_symbol
_atom_site_label
_atom_site_fract_x
_atom_site_fract_y
_atom_site_fract_z
Si Si1 0.712978 0.460621 0.708003
Si Si2 0.204884 0.467325 0.630429
Si Si3 0.000000 0.537911 0.450024
Si Si4 0.930331 0.956965 0.332690
Si Si5 0.929506 0.037602 0.234501
Si Si6 0.857032 0.962720 0.450780
O O1 0.725876 0.250000 0.708259
O O2 0.750000 0.531666 0.750000
O O3 0.741753 0.529568 0.663857
O O4 0.636286 0.485232 0.711641
O O5 0.208085 0.250000 0.630441
O O6 0.136210 0.527343 0.649612
O O7 0.198298 0.523402 0.581692
O O8 0.000000 0.500000 0.500000
O O9 0.071091 0.470843 0.436804
O O10 0.000000 0.750000 0.442760
O O11 0.931846 0.750000 0.345026
O O12 0.000000 0.035011 0.345216
O O13 0.926127 0.966964 0.282194
O O14 0.929771 0.250000 0.237051
O O15 0.000000 0.981089 0.217015
O O16 0.860413 0.750000 0.447438
O O17 0.846534 0.000000 0.500000
#
# Coordination Sequence:
#
# PCOD9534690 Si02
#       6
#    16  16   8  16  16  16
#     4  10  18  31  48  67  90 116 150 187 221 262
#     4   9  17  28  44  66  87 112 148 191 227 257
#     4   8  14  24  40  58  78 108 144 180 218 254
#     4   9  16  27  44  63  84 115 155 191 221 256
#     4  10  20  32  45  63  90 121 150 182 221 264
#     4   9  17  29  43  60  84 113 146 184 223 259
#
# _framework density 17.780868000000002
#
# number of rings (size 3 to 8) (size 9 to 14) (size 15 to 20)
#    0.000    2.727    1.818    0.545    1.273    1.455 
#    0.000    1.818    0.000    0.000    0.000    0.000 
#    0.000    0.727    0.000    1.636    0.000    2.909 
#
# Total GULP energy -245103.652861 kJ/mol
# GULP energy per Si atom -5570.537565 kJ/mol
# Density = 1.774040 g / cm^3
# Si number density = 17.780868 Si / 1000 Ang^3
#
#
#
# Elastic Constant Matrix: (Units=GPa)
#
#
# Indices 1 2 3 4 5 6 
#
# 1 104.5228 -9.0424 76.2000 0.0000 0.0000 0.0000
# 2 -9.0424 41.2581 5.2951 0.0000 0.0000 0.0000
# 3 76.2000 5.2951 116.8700 0.0000 0.0000 0.0000
# 4 0.0000 0.0000 0.0000 -0.6204 0.0000 0.0000
# 5 0.0000 0.0000 0.0000 0.0000 42.7673 0.0000
# 6 0.0000 0.0000 0.0000 0.0000 0.0000 23.2747
#
#
#
# Elastic Compliance Matrix: (Units=1/GPa)
#
#
# Indices 1 2 3 4 5 6 
#
# 1 0.019595 0.005969 -0.013046 0.000000 0.000000 0.000000
# 2 0.005969 0.026198 -0.005079 0.000000 0.000000 0.000000
# 3 -0.013046 -0.005079 0.017293 0.000000 0.000000 0.000000
# 4 0.000000 0.000000 0.000000 -1.611752 0.000000 0.000000
# 5 0.000000 0.000000 0.000000 0.000000 0.023382 0.000000
# 6 0.000000 0.000000 0.000000 0.000000 0.000000 0.042965
#
#
# Mechanical properties :
#
#
# Convention : Reuss Voigt Hill
#
# Bulk Modulus (GPa) = 25.79109 45.28404 35.53757
# Shear Modulus (GPa) = -3.46001 25.76417 11.15208
#
# Velocity S-wave (km/s) = -1.39648 3.81068 2.50710
# Velocity P-wave (km/s) = 3.45489 6.69962 5.33016
#
# Compressibility (1/GPa) = 0.03877307
#
# Stress axis : x y z
#
# Youngs Moduli (GPa) = 51.03365 38.17132 57.82684
#
# Poissons Ratio (x) = -0.22784 0.75444
# Poissons Ratio (y) = -0.30462 0.29369
# Poissons Ratio (z) = 0.66581 0.19386
#
# Static dielectric constant tensor:
#      x y z
#    x 1.491910 0.000000 0.000000 
#    y 0.000000 1.734240 0.000000 
#    z 0.000000 0.000000 1.642610 
# 
# From -- ./inp_files/70424.got.cif
#   From: 2010.05.17/outbox.cif.g08.bks.cpg/sg74_36_cif.got.tgz:70424.got - 2010.06.03 17:57:02.
