data_PCOD9534912
_publ_section_title
;
Structure prediction by ZEFSAII (Michael W. Deem and Ramdas Pophale) SiO2 
 PCOD9534912
Probable space group: I M M A
;
_chemical_formula_sum "Si O2"
_cell_formula_units_Z 104
_cell_length_a 7.370485
_cell_length_b 21.017654
_cell_length_c 29.620390
_cell_angle_alpha 90.000000
_cell_angle_beta 90.000000
_cell_angle_gamma 90.000000
_cell_volume 4588.503606
_symmetry_space_group_name_H-M "I M M A"
_symmetry_group_IT_number 74
_symmetry_cell_setting 'orthorhombic'
loop_
_space_group_symop_operation_xyz
x,y,z
-x,1/2-y,z
x,-y,-z
-x,1/2+y,-z
-x,-y,-z
x,1/2+y,-z
-x,y,z
x,1/2-y,z
1/2+x,1/2+y,1/2+z
1/2-x,-y,1/2+z
1/2+x,1/2-y,1/2-z
1/2-x,y,1/2-z
1/2-x,1/2-y,1/2-z
1/2+x,y,1/2-z
1/2-x,1/2+y,1/2+z
1/2+x,-y,1/2+z
loop_
_atom_site_type_symbol
_atom_site_label
_atom_site_fract_x
_atom_site_fract_y
_atom_site_fract_z
Si Si1 0.214456 0.250000 0.533122
Si Si2 0.722518 0.889591 0.336479
Si Si3 0.283765 0.474605 0.301425
Si Si4 0.779323 0.886052 0.882870
Si Si5 0.784321 0.750000 0.196635
Si Si6 0.217607 0.250000 0.076026
Si Si7 0.294740 0.432367 0.476647
Si Si8 0.794397 0.117310 0.935790
O O1 0.241752 0.250000 0.478176
O O2 0.301876 0.308084 0.559727
O O3 0.000000 0.250000 0.540704
O O4 0.500000 0.887759 0.335781
O O5 0.781295 0.952350 0.308962
O O6 0.783551 0.818866 0.321512
O O7 0.782295 0.901828 0.388015
O O8 0.500000 0.477779 0.308324
O O9 0.250000 0.455172 0.250000
O O10 0.215410 0.422591 0.337911
O O11 0.720800 0.814699 0.898225
O O12 0.725771 0.929084 0.926253
O O13 0.000000 0.883415 0.878954
O O14 0.750000 0.750000 0.250000
O O15 0.000000 0.750000 0.188059
O O16 0.000000 0.250000 0.078338
O O17 0.304289 0.500000 0.500000
O O18 0.500000 0.404920 0.472573
O O19 0.197344 0.396000 0.516721
O O20 0.000000 0.089545 0.936761
#
# Coordination Sequence:
#
# PCOD9534912 Si02
#       8
#     8  16  16  16   8   8  16  16
#     4  12  23  33  47  75 114 149 178 213 259 320
#     4   9  18  32  53  79 105 133 175 224 265 308
#     4  10  20  36  56  80 108 139 175 223 276 327
#     4   9  17  30  52  80 105 131 176 229 269 311
#     4  10  19  32  48  70  99 133 174 218 260 306
#     4  10  18  35  58  79 100 136 184 229 273 318
#     4   9  15  24  46  80 106 125 162 218 267 308
#     4  10  18  32  54  76 102 138 178 216 259 312
#
# _framework density 22.665341999999999
#
# number of rings (size 3 to 8) (size 9 to 14) (size 15 to 20)
#    0.000    2.308    1.538    2.538    0.000    4.923 
#    0.000    3.462    0.000    0.462    0.000    0.000 
#    0.000    0.000    0.000    0.000    0.000    0.000 
#
# Total GULP energy -289691.243039 kJ/mol
# GULP energy per Si atom -5570.985443 kJ/mol
# Density = 2.261376 g / cm^3
# Si number density = 22.665342 Si / 1000 Ang^3
#
#
#
# Elastic Constant Matrix: (Units=GPa)
#
#
# Indices 1 2 3 4 5 6 
#
# 1 90.6646 1.3312 -4.2593 0.0000 0.0000 0.0000
# 2 1.3312 96.9725 53.7423 0.0000 0.0000 0.0000
# 3 -4.2593 53.7423 186.7512 0.0000 0.0000 0.0000
# 4 0.0000 0.0000 0.0000 35.5185 0.0000 0.0000
# 5 0.0000 0.0000 0.0000 0.0000 8.1878 0.0000
# 6 0.0000 0.0000 0.0000 0.0000 0.0000 4.2207
#
#
#
# Elastic Compliance Matrix: (Units=1/GPa)
#
#
# Indices 1 2 3 4 5 6 
#
# 1 0.011051 -0.000347 0.000352 0.000000 0.000000 0.000000
# 2 -0.000347 0.012280 -0.003542 0.000000 0.000000 0.000000
# 3 0.000352 -0.003542 0.006382 0.000000 0.000000 0.000000
# 4 0.000000 0.000000 0.000000 0.028154 0.000000 0.000000
# 5 0.000000 0.000000 0.000000 0.000000 0.122133 0.000000
# 6 0.000000 0.000000 0.000000 0.000000 0.000000 0.236930
#
#
# Mechanical properties :
#
#
# Convention : Reuss Voigt Hill
#
# Bulk Modulus (GPa) = 44.16992 52.89075 48.53033
# Shear Modulus (GPa) = 11.58615 31.15699 21.37157
#
# Velocity S-wave (km/s) = 2.26339 3.71165 3.07403
# Velocity P-wave (km/s) = 5.13427 6.46179 5.83590
#
# Compressibility (1/GPa) = 0.02263984
#
# Stress axis : x y z
#
# Youngs Moduli (GPa) = 90.48726 81.43457 156.69157
#
# Poissons Ratio (x) = 0.02823 -0.05513
# Poissons Ratio (y) = 0.03137 0.55496
# Poissons Ratio (z) = -0.03184 0.28842
#
# Static dielectric constant tensor:
#      x y z
#    x 1.896910 0.000000 0.000000 
#    y 0.000000 1.769350 0.000000 
#    z 0.000000 0.000000 1.914480 
# 
# From -- ./inp_files/64834.got.cif
#   From: 2010.05.17/outbox.cif.g08.bks.cpg/sg74_33_cif.got.tgz:64834.got - 2010.06.03 17:57:02.
