data_PCOD9534149
_publ_section_title
;
Structure prediction by ZEFSAII (Michael W. Deem and Ramdas Pophale) SiO2 
 PCOD9534149
Probable space group: I M M A
;
_chemical_formula_sum "Si O2"
_cell_formula_units_Z 88
_cell_length_a 7.615187
_cell_length_b 28.938092
_cell_length_c 20.055626
_cell_angle_alpha 90.000000
_cell_angle_beta 90.000000
_cell_angle_gamma 90.000000
_cell_volume 4419.637885
_symmetry_space_group_name_H-M "I M M A"
_symmetry_group_IT_number 74
_symmetry_cell_setting 'orthorhombic'
loop_
_space_group_symop_operation_xyz
x,y,z
-x,1/2-y,z
x,-y,-z
-x,1/2+y,-z
-x,-y,-z
x,1/2+y,-z
-x,y,z
x,1/2-y,z
1/2+x,1/2+y,1/2+z
1/2-x,-y,1/2+z
1/2+x,1/2-y,1/2-z
1/2-x,y,1/2-z
1/2-x,1/2-y,1/2-z
1/2+x,y,1/2-z
1/2-x,1/2+y,1/2+z
1/2+x,-y,1/2+z
loop_
_atom_site_type_symbol
_atom_site_label
_atom_site_fract_x
_atom_site_fract_y
_atom_site_fract_z
Si Si1 0.786141 0.463271 0.908895
Si Si2 0.291185 0.665384 0.577140
Si Si3 0.284801 0.302158 0.568386
Si Si4 0.294139 0.250000 0.171986
Si Si5 0.213885 0.936331 0.940075
Si Si6 0.289468 0.878343 0.326621
O O1 0.725142 0.516288 0.905354
O O2 0.724300 0.428081 0.852541
O O3 0.000000 0.464557 0.907452
O O4 0.740445 0.442313 0.981621
O O5 0.500000 0.660693 0.569209
O O6 0.225088 0.684034 0.505861
O O7 0.266438 0.703679 0.633861
O O8 0.223968 0.613039 0.587526
O O9 0.500000 0.302803 0.567754
O O10 0.230656 0.250000 0.583634
O O11 0.224749 0.338719 0.623331
O O12 0.500000 0.250000 0.165632
O O13 0.250000 0.250000 0.250000
O O14 0.000000 0.936814 0.937002
O O15 0.500000 0.879015 0.333662
O O16 0.250000 0.869573 0.250000
#
# Coordination Sequence:
#
# PCOD9534149 Si02
#       6
#    16  16  16   8  16  16
#     4   8  13  24  44  74 106 132 169 215 257 304
#     4  10  17  32  59  85 105 131 171 218 264 308
#     4   9  16  28  50  76  99 130 175 217 255 304
#     4  12  26  42  58  80 109 140 169 206 261 324
#     4   8  13  23  48  81 103 125 167 220 259 300
#     4  10  19  31  47  69 102 143 178 214 258 305
#
# _framework density 19.911131999999998
#
# number of rings (size 3 to 8) (size 9 to 14) (size 15 to 20)
#    0.000    2.727    2.727    1.909    0.000    0.364 
#    0.000    1.818    0.000    3.273    0.000    2.545 
#    0.000    0.000    0.000    0.000    0.000    0.000 
#
# Total GULP energy -245364.479934 kJ/mol
# GULP energy per Si atom -5576.465453 kJ/mol
# Density = 1.986581 g / cm^3
# Si number density = 19.911132 Si / 1000 Ang^3
#
#
#
# Elastic Constant Matrix: (Units=GPa)
#
#
# Indices 1 2 3 4 5 6 
#
# 1 35.4096 6.5084 -5.4362 0.0000 0.0000 0.0000
# 2 6.5084 217.4021 99.0810 0.0000 0.0000 0.0000
# 3 -5.4362 99.0810 134.6845 -0.0001 0.0000 0.0000
# 4 0.0000 0.0000 -0.0001 32.7437 0.0000 0.0000
# 5 0.0000 0.0000 0.0000 0.0000 12.7150 0.0000
# 6 0.0000 0.0000 0.0000 0.0000 0.0000 -9.5385
#
#
#
# Elastic Compliance Matrix: (Units=1/GPa)
#
#
# Indices 1 2 3 4 5 6 
#
# 1 0.029048 -0.002112 0.002726 0.000000 0.000000 0.000000
# 2 -0.002112 0.007073 -0.005289 0.000000 0.000000 0.000000
# 3 0.002726 -0.005289 0.011426 0.000000 0.000000 0.000000
# 4 0.000000 0.000000 0.000000 0.030540 0.000000 0.000000
# 5 0.000000 0.000000 0.000000 0.000000 0.078647 0.000000
# 6 0.000000 0.000000 0.000000 0.000000 0.000000 -0.104839
#
#
# Mechanical properties :
#
#
# Convention : Reuss Voigt Hill
#
# Bulk Modulus (GPa) = 26.17995 65.31139 45.74567
# Shear Modulus (GPa) = 67.58859 26.34024 46.96442
#
# Velocity S-wave (km/s) = 5.83257 3.64110 4.86192
# Velocity P-wave (km/s) = 7.65084 7.10982 7.38528
#
# Compressibility (1/GPa) = 0.03819718
#
# Stress axis : x y z
#
# Youngs Moduli (GPa) = 34.42621 141.37538 87.52346
#
# Poissons Ratio (x) = 0.29859 -0.23861
# Poissons Ratio (y) = 0.07271 0.46289
# Poissons Ratio (z) = -0.09385 0.74770
#
# Static dielectric constant tensor:
#      x y z
#    x 1.760210 0.000000 0.000000 
#    y 0.000000 1.291940 0.000000 
#    z 0.000000 0.000000 1.644150 
# 
# From -- ./inp_files/40157.got.cif
#   From: 2010.05.17/outbox.cif.g08.bks.cpg/sg74_21_cif.got.tgz:40157.got - 2010.06.03 17:57:02.
