data_PCOD9534459
_publ_section_title
;
Structure prediction by ZEFSAII (Michael W. Deem and Ramdas Pophale) SiO2 
 PCOD9534459
Probable space group: I M M A
;
_chemical_formula_sum "Si O2"
_cell_formula_units_Z 128
_cell_length_a 17.500999
_cell_length_b 18.108102
_cell_length_c 25.084094
_cell_angle_alpha 90.000000
_cell_angle_beta 90.000000
_cell_angle_gamma 90.000000
_cell_volume 7949.397094
_symmetry_space_group_name_H-M "I M M A"
_symmetry_group_IT_number 74
_symmetry_cell_setting 'orthorhombic'
loop_
_space_group_symop_operation_xyz
x,y,z
-x,1/2-y,z
x,-y,-z
-x,1/2+y,-z
-x,-y,-z
x,1/2+y,-z
-x,y,z
x,1/2-y,z
1/2+x,1/2+y,1/2+z
1/2-x,-y,1/2+z
1/2+x,1/2-y,1/2-z
1/2-x,y,1/2-z
1/2-x,1/2-y,1/2-z
1/2+x,y,1/2-z
1/2-x,1/2+y,1/2+z
1/2+x,-y,1/2+z
loop_
_atom_site_type_symbol
_atom_site_label
_atom_site_fract_x
_atom_site_fract_y
_atom_site_fract_z
Si Si1 0.250882 0.662350 0.051521
Si Si2 0.087445 0.395954 0.380224
Si Si3 0.285259 0.933972 0.959695
Si Si4 0.092985 0.668088 0.732392
Si Si5 0.875212 0.046157 0.678744
Si Si6 0.287534 0.037174 0.629003
Si Si7 0.417231 0.162775 0.903248
Si Si8 0.089792 0.019697 0.209237
O O1 0.237315 0.750000 0.053731
O O2 0.208046 0.614322 0.096617
O O3 0.341598 0.647267 0.062476
O O4 0.238036 0.624952 0.994265
O O5 0.143856 0.395373 0.430082
O O6 0.114328 0.348068 0.329191
O O7 0.090785 0.479147 0.356637
O O8 0.000000 0.376612 0.393380
O O9 0.236635 0.975405 0.914250
O O10 0.309729 0.000000 0.000000
O O11 0.117798 0.750000 0.748575
O O12 0.117684 0.600674 0.770171
O O13 0.000000 0.665859 0.732609
O O14 0.784092 0.043465 0.669610
O O15 0.905970 0.120117 0.652022
O O16 0.898607 0.031932 0.738987
O O17 0.361185 0.011872 0.661053
O O18 0.500000 0.141357 0.926730
O O19 0.417499 0.250000 0.894553
O O20 0.000000 0.024471 0.196875
#
# Coordination Sequence:
#
# PCOD9534459 Si02
#       8
#    16  16  16  16  16  16  16  16
#     4   9  18  32  48  64  86 122 158 188 232 279
#     4   9  16  25  41  65  91 122 155 182 213 258
#     4   9  18  30  44  61  85 118 153 194 234 265
#     4   8  15  28  44  65  95 124 144 168 212 269
#     4   9  16  28  45  65  94 126 150 175 215 270
#     4   9  18  32  48  67  92 119 149 187 226 268
#     4   9  16  26  42  66  95 123 152 186 220 260
#     4  10  18  29  50  73  90 116 152 186 222 265
#
# _framework density 16.101849999999999
#
# number of rings (size 3 to 8) (size 9 to 14) (size 15 to 20)
#    0.000    3.000    0.000    3.000    0.000    1.250 
#    0.000    1.250    0.000   17.250    0.000    0.000 
#    0.000    0.000    0.000    0.000    0.000    0.000 
#
# Total GULP energy -356339.954110 kJ/mol
# GULP energy per Si atom -5567.811783 kJ/mol
# Density = 1.606520 g / cm^3
# Si number density = 16.101850 Si / 1000 Ang^3
#
#
#
# Elastic Constant Matrix: (Units=GPa)
#
#
# Indices 1 2 3 4 5 6 
#
# 1 45.6667 15.6189 29.0801 0.0000 0.0000 0.0000
# 2 15.6189 62.0353 26.6736 0.0000 0.0000 0.0000
# 3 29.0801 26.6736 63.4530 0.0000 0.0000 0.0000
# 4 0.0000 0.0000 0.0000 12.8719 0.0000 0.0000
# 5 0.0000 0.0000 0.0000 0.0000 12.0619 0.0000
# 6 0.0000 0.0000 0.0000 0.0000 0.0000 12.4348
#
#
#
# Elastic Compliance Matrix: (Units=1/GPa)
#
#
# Indices 1 2 3 4 5 6 
#
# 1 0.031140 -0.002080 -0.013397 0.000000 0.000000 0.000000
# 2 -0.002080 0.019815 -0.007376 0.000000 0.000000 0.000000
# 3 -0.013397 -0.007376 0.025000 0.000000 0.000000 0.000000
# 4 0.000000 0.000000 0.000000 0.077688 0.000000 0.000000
# 5 0.000000 0.000000 0.000000 0.000000 0.082906 0.000000
# 6 0.000000 0.000000 0.000000 0.000000 0.000000 0.080419
#
#
# Mechanical properties :
#
#
# Convention : Reuss Voigt Hill
#
# Bulk Modulus (GPa) = 33.05904 34.87779 33.96842
# Shear Modulus (GPa) = 13.41351 14.12591 13.76971
#
# Velocity S-wave (km/s) = 2.88938 2.96511 2.92749
# Velocity P-wave (km/s) = 5.63091 5.78189 5.70690
#
# Compressibility (1/GPa) = 0.03024891
#
# Stress axis : x y z
#
# Youngs Moduli (GPa) = 32.11281 50.46630 39.99962
#
# Poissons Ratio (x) = 0.10497 0.53587
# Poissons Ratio (y) = 0.06679 0.29505
# Poissons Ratio (z) = 0.43022 0.37226
#
# Static dielectric constant tensor:
#      x y z
#    x 1.553230 0.000000 0.000000 
#    y 0.000000 1.561420 0.000000 
#    z 0.000000 0.000000 1.535870 
# 
# From -- ./inp_files/61149.got.cif
#   From: 2010.05.17/outbox.cif.g08.bks.cpg/sg74_31_cif.got.tgz:61149.got - 2010.06.03 17:57:02.
