data_PCOD9534774
_publ_section_title
;
Structure prediction by ZEFSAII (Michael W. Deem and Ramdas Pophale) SiO2 
 PCOD9534774
Probable space group: I M M A
;
_chemical_formula_sum "Si O2"
_cell_formula_units_Z 72
_cell_length_a 10.175427
_cell_length_b 14.272698
_cell_length_c 24.510212
_cell_angle_alpha 90.000000
_cell_angle_beta 90.000000
_cell_angle_gamma 90.000000
_cell_volume 3559.637613
_symmetry_space_group_name_H-M "I M M A"
_symmetry_group_IT_number 74
_symmetry_cell_setting 'orthorhombic'
loop_
_space_group_symop_operation_xyz
x,y,z
-x,1/2-y,z
x,-y,-z
-x,1/2+y,-z
-x,-y,-z
x,1/2+y,-z
-x,y,z
x,1/2-y,z
1/2+x,1/2+y,1/2+z
1/2-x,-y,1/2+z
1/2+x,1/2-y,1/2-z
1/2-x,y,1/2-z
1/2-x,1/2-y,1/2-z
1/2+x,y,1/2-z
1/2-x,1/2+y,1/2+z
1/2+x,-y,1/2+z
loop_
_atom_site_type_symbol
_atom_site_label
_atom_site_fract_x
_atom_site_fract_y
_atom_site_fract_z
Si Si1 0.746094 0.855555 0.684474
Si Si2 0.500000 0.515625 0.702982
Si Si3 0.500000 0.349646 0.441045
Si Si4 0.000000 0.353379 0.579818
Si Si5 0.000000 0.975108 0.666753
Si Si6 0.500000 0.064716 0.601284
Si Si7 0.228556 0.604572 0.022619
O O1 0.736239 0.750000 0.662246
O O2 0.750000 0.844718 0.750000
O O3 0.623379 0.924200 0.682044
O O4 0.871683 0.909405 0.660651
O O5 0.500000 0.500057 0.767927
O O6 0.500000 0.424126 0.665975
O O7 0.500000 0.250000 0.409777
O O8 0.500000 0.454426 0.416644
O O9 0.366103 0.349448 0.477096
O O10 0.869890 0.359854 0.541923
O O11 0.000000 0.250000 0.606281
O O12 0.000000 0.437982 0.624675
O O13 0.631508 0.104634 0.574638
O O14 0.249716 0.500000 0.000000
#
# Coordination Sequence:
#
# PCOD9534774 Si02
#       7
#    16   8   8   8   8   8  16
#     4   9  17  30  50  74 101 137 176 213 262 320
#     4  10  18  31  52  77 108 140 175 217 265 319
#     4   9  17  32  54  84 113 132 162 216 276 336
#     4  12  23  36  56  79 106 150 198 231 268 319
#     4  10  21  34  50  74 110 148 181 224 264 311
#     4   9  18  33  55  78 101 136 173 212 272 331
#     4   9  19  36  57  78 104 137 176 226 281 330
#
# _framework density 20.226776999999998
#
# number of rings (size 3 to 8) (size 9 to 14) (size 15 to 20)
#    0.000    2.444    0.000    4.333    0.000    3.556 
#    0.000    0.000    0.000   28.667    0.000    0.000 
#    0.000    0.000    0.000    0.000    0.000    0.000 
#
# Total GULP energy -200411.253557 kJ/mol
# GULP energy per Si atom -5566.979265 kJ/mol
# Density = 2.018074 g / cm^3
# Si number density = 20.226777 Si / 1000 Ang^3
#
#
#
# Elastic Constant Matrix: (Units=GPa)
#
#
# Indices 1 2 3 4 5 6 
#
# 1 169.1483 29.0250 38.5143 0.0000 0.0000 0.0000
# 2 29.0250 79.1513 9.3274 0.0000 0.0000 0.0000
# 3 38.5143 9.3274 41.3558 0.0000 0.0000 0.0000
# 4 0.0000 0.0000 0.0000 19.6652 0.0000 0.0000
# 5 0.0000 0.0000 0.0000 0.0000 30.3203 0.0000
# 6 0.0000 0.0000 0.0000 0.0000 0.0000 -41.5365
#
#
#
# Elastic Compliance Matrix: (Units=1/GPa)
#
#
# Indices 1 2 3 4 5 6 
#
# 1 0.007818 -0.002064 -0.006815 0.000000 0.000000 0.000000
# 2 -0.002064 0.013524 -0.001128 0.000000 0.000000 0.000000
# 3 -0.006815 -0.001128 0.030782 0.000000 0.000000 0.000000
# 4 0.000000 0.000000 0.000000 0.050851 0.000000 0.000000
# 5 0.000000 0.000000 0.000000 0.000000 0.032981 0.000000
# 6 0.000000 0.000000 0.000000 0.000000 0.000000 -0.024075
#
#
# Mechanical properties :
#
#
# Convention : Reuss Voigt Hill
#
# Bulk Modulus (GPa) = 31.14382 49.26543 40.20463
# Shear Modulus (GPa) = 35.06352 15.87571 25.46961
#
# Velocity S-wave (km/s) = 4.16807 2.80462 3.55237
# Velocity P-wave (km/s) = 6.21245 5.90739 6.06184
#
# Compressibility (1/GPa) = 0.03210909
#
# Stress axis : x y z
#
# Youngs Moduli (GPa) = 127.91143 73.94390 32.48658
#
# Poissons Ratio (x) = 0.15260 0.22141
# Poissons Ratio (y) = 0.26397 0.03665
# Poissons Ratio (z) = 0.87176 0.08343
#
# Static dielectric constant tensor:
#      x y z
#    x 1.727290 0.000000 0.000000 
#    y 0.000000 1.717370 0.000000 
#    z 0.000000 0.000000 1.818980 
# 
# From -- ./inp_files/63729.got.cif
#   From: 2010.05.17/outbox.cif.g08.bks.cpg/sg74_32_cif.got.tgz:63729.got - 2010.06.03 17:57:02.
