data_PCOD9534572
_publ_section_title
;
Structure prediction by ZEFSAII (Michael W. Deem and Ramdas Pophale) SiO2 
 PCOD9534572
Probable space group: I M M A
;
_chemical_formula_sum "Si O2"
_cell_formula_units_Z 80
_cell_length_a 10.310597
_cell_length_b 24.521920
_cell_length_c 20.382491
_cell_angle_alpha 90.000000
_cell_angle_beta 90.000000
_cell_angle_gamma 90.000000
_cell_volume 5153.420051
_symmetry_space_group_name_H-M "I M M A"
_symmetry_group_IT_number 74
_symmetry_cell_setting 'orthorhombic'
loop_
_space_group_symop_operation_xyz
x,y,z
-x,1/2-y,z
x,-y,-z
-x,1/2+y,-z
-x,-y,-z
x,1/2+y,-z
-x,y,z
x,1/2-y,z
1/2+x,1/2+y,1/2+z
1/2-x,-y,1/2+z
1/2+x,1/2-y,1/2-z
1/2-x,y,1/2-z
1/2-x,1/2-y,1/2-z
1/2+x,y,1/2-z
1/2-x,1/2+y,1/2+z
1/2+x,-y,1/2+z
loop_
_atom_site_type_symbol
_atom_site_label
_atom_site_fract_x
_atom_site_fract_y
_atom_site_fract_z
Si Si1 0.155191 0.577160 0.539501
Si Si2 0.000000 0.077541 0.688175
Si Si3 0.268390 0.529883 0.103457
Si Si4 0.500000 0.188033 0.581007
Si Si5 0.000000 0.077047 0.844146
Si Si6 0.270648 0.311682 0.994328
Si Si7 0.500000 0.811519 0.112202
O O1 0.219297 0.534492 0.589246
O O2 0.194664 0.558013 0.466036
O O3 0.199093 0.639690 0.544207
O O4 0.000000 0.572655 0.544906
O O5 0.874329 0.049458 0.655914
O O6 0.000000 0.140541 0.664760
O O7 0.000000 0.072787 0.765949
O O8 0.127600 0.549000 0.125906
O O9 0.500000 0.250000 0.607968
O O10 0.500000 0.140389 0.634224
O O11 0.628362 0.182091 0.536687
O O12 0.283861 0.250000 0.020433
O O13 0.375459 0.317119 0.935391
O O14 0.500000 0.750000 0.139633
#
# Coordination Sequence:
#
# PCOD9534572 Si02
#       7
#    16   8  16   8   8  16   8
#     4  11  18  33  58  72 100 127 165 215 254 320
#     4  12  20  37  50  67 104 136 180 208 248 293
#     4  11  21  34  50  76  95 132 172 206 265 290
#     4  10  20  34  45  66 104 138 170 205 249 288
#     4  12  24  33  50  73 102 136 178 220 234 297
#     4  10  18  30  51  75 101 129 163 208 254 296
#     4  10  18  30  49  70  94 130 180 215 235 280
#
# _framework density 15.523671999999999
#
# number of rings (size 3 to 8) (size 9 to 14) (size 15 to 20)
#    0.000    1.200    7.000    1.200    0.000    2.800 
#    0.000    0.000    0.000    6.000    0.000    0.000 
#    0.000    4.800    0.000    0.000    0.000    0.000 
#
# Total GULP energy -223235.314310 kJ/mol
# GULP energy per Si atom -5580.882858 kJ/mol
# Density = 1.548834 g / cm^3
# Si number density = 15.523672 Si / 1000 Ang^3
#
#
#
# Elastic Constant Matrix: (Units=GPa)
#
#
# Indices 1 2 3 4 5 6 
#
# 1 137.8888 48.4847 35.3077 0.0000 0.0000 0.0000
# 2 48.4847 153.0562 58.1116 0.0000 0.0000 0.0000
# 3 35.3077 58.1116 51.0803 0.0000 0.0000 0.0000
# 4 0.0000 0.0000 0.0000 15.2387 0.0000 0.0000
# 5 0.0000 0.0000 0.0000 0.0000 -11.4822 0.0000
# 6 0.0000 0.0000 0.0000 0.0000 0.0000 34.1302
#
#
#
# Elastic Compliance Matrix: (Units=1/GPa)
#
#
# Indices 1 2 3 4 5 6 
#
# 1 0.008874 -0.000849 -0.005168 0.000000 0.000000 0.000000
# 2 -0.000849 0.011583 -0.012590 0.000000 0.000000 0.000000
# 3 -0.005168 -0.012590 0.037473 0.000000 0.000000 0.000000
# 4 0.000000 0.000000 0.000000 0.065622 0.000000 0.000000
# 5 0.000000 0.000000 0.000000 0.000000 -0.087091 0.000000
# 6 0.000000 0.000000 0.000000 0.000000 0.000000 0.029300
#
#
# Mechanical properties :
#
#
# Convention : Reuss Voigt Hill
#
# Bulk Modulus (GPa) = 48.27482 69.53704 58.90593
# Shear Modulus (GPa) = 45.50434 20.91877 33.21155
#
# Velocity S-wave (km/s) = 5.42001 3.67487 4.63040
# Velocity P-wave (km/s) = 8.38652 7.93080 8.16184
#
# Compressibility (1/GPa) = 0.02071473
#
# Stress axis : x y z
#
# Youngs Moduli (GPa) = 112.68789 86.33589 26.68607
#
# Poissons Ratio (x) = 0.07329 0.13792
# Poissons Ratio (y) = 0.09566 0.33599
# Poissons Ratio (z) = 0.58240 1.08699
#
# Static dielectric constant tensor:
#      x y z
#    x 1.515510 0.000000 0.000000 
#    y 0.000000 1.566000 0.000000 
#    z 0.000000 0.000000 1.465380 
# 
# From -- ./inp_files/41465.got.cif
#   From: 2010.05.17/outbox.cif.g08.bks.cpg/sg74_21_cif.got.tgz:41465.got - 2010.06.03 17:57:02.
