data_PCOD9534687
_publ_section_title
;
Structure prediction by ZEFSAII (Michael W. Deem and Ramdas Pophale) SiO2 
 PCOD9534687
Probable space group: I M M A
;
_chemical_formula_sum "Si O2"
_cell_formula_units_Z 112
_cell_length_a 18.661412
_cell_length_b 21.055564
_cell_length_c 14.560116
_cell_angle_alpha 90.000000
_cell_angle_beta 90.000000
_cell_angle_gamma 90.000000
_cell_volume 5721.056216
_symmetry_space_group_name_H-M "I M M A"
_symmetry_group_IT_number 74
_symmetry_cell_setting 'orthorhombic'
loop_
_space_group_symop_operation_xyz
x,y,z
-x,1/2-y,z
x,-y,-z
-x,1/2+y,-z
-x,-y,-z
x,1/2+y,-z
-x,y,z
x,1/2-y,z
1/2+x,1/2+y,1/2+z
1/2-x,-y,1/2+z
1/2+x,1/2-y,1/2-z
1/2-x,y,1/2-z
1/2-x,1/2-y,1/2-z
1/2+x,y,1/2-z
1/2-x,1/2+y,1/2+z
1/2+x,-y,1/2+z
loop_
_atom_site_type_symbol
_atom_site_label
_atom_site_fract_x
_atom_site_fract_y
_atom_site_fract_z
Si Si1 0.351207 0.394435 0.098938
Si Si2 0.219232 0.426471 0.995989
Si Si3 0.916059 0.819871 0.756643
Si Si4 0.082510 0.867904 0.402037
Si Si5 0.233288 0.820072 0.357444
Si Si6 0.916279 0.505748 0.283954
Si Si7 0.083012 0.562081 0.893396
O O1 0.372650 0.337684 0.165945
O O2 0.370960 0.457965 0.154105
O O3 0.267978 0.393514 0.073799
O O4 0.396460 0.392241 0.004286
O O5 0.234440 0.381939 0.908637
O O6 0.245316 0.500000 0.000000
O O7 0.136653 0.430439 0.023073
O O8 0.897760 0.750000 0.791706
O O9 0.907826 0.874744 0.831637
O O10 0.000000 0.820518 0.730930
O O11 0.147792 0.822317 0.375465
O O12 0.000000 0.845004 0.401865
O O13 0.087980 0.925329 0.328493
O O14 0.259705 0.750000 0.389394
O O15 0.250000 0.825057 0.250000
O O16 0.896318 0.494893 0.177305
O O17 0.000000 0.485237 0.289312
O O18 0.000000 0.555674 0.919676
#
# Coordination Sequence:
#
# PCOD9534687 Si02
#       7
#    16  16  16  16  16  16  16
#     4  10  18  31  47  80 119 153 192 234 288 347
#     4  11  24  39  60  91 113 149 199 253 300 357
#     4   9  18  33  54  81 118 161 194 227 283 353
#     4  10  19  32  57  86 110 150 200 244 290 347
#     4  10  24  45  63  83 120 163 196 243 308 362
#     4   9  17  30  51  82 121 155 185 235 294 347
#     4   9  20  38  57  83 117 152 193 245 302 355
#
# _framework density 19.576803999999999
#
# number of rings (size 3 to 8) (size 9 to 14) (size 15 to 20)
#    0.000    2.286    0.000    4.286    2.000    6.857 
#    0.000    1.429    0.000    0.857    0.000    0.000 
#    0.000    0.000    0.000    0.000    0.000    0.000 
#
# Total GULP energy -312235.167982 kJ/mol
# GULP energy per Si atom -5575.628000 kJ/mol
# Density = 1.953225 g / cm^3
# Si number density = 19.576804 Si / 1000 Ang^3
#
#
#
# Elastic Constant Matrix: (Units=GPa)
#
#
# Indices 1 2 3 4 5 6 
#
# 1 83.6169 15.0919 42.1507 0.0000 0.0000 0.0000
# 2 15.0919 95.0971 38.1490 0.0000 0.0000 0.0000
# 3 42.1507 38.1490 70.4431 0.0000 0.0000 0.0000
# 4 0.0000 0.0000 0.0000 -36.1889 0.0000 0.0000
# 5 0.0000 0.0000 0.0000 0.0000 26.4032 0.0000
# 6 0.0000 0.0000 0.0000 0.0000 0.0000 16.3243
#
#
#
# Elastic Compliance Matrix: (Units=1/GPa)
#
#
# Indices 1 2 3 4 5 6 
#
# 1 0.017364 0.001804 -0.011367 0.000000 0.000000 0.000000
# 2 0.001804 0.013622 -0.008457 0.000000 0.000000 0.000000
# 3 -0.011367 -0.008457 0.025577 0.000000 0.000000 0.000000
# 4 0.000000 0.000000 0.000000 -0.027633 0.000000 0.000000
# 5 0.000000 0.000000 0.000000 0.000000 0.037874 0.000000
# 6 0.000000 0.000000 0.000000 0.000000 0.000000 0.061258
#
#
# Mechanical properties :
#
#
# Convention : Reuss Voigt Hill
#
# Bulk Modulus (GPa) = 48.72321 48.88226 48.80273
# Shear Modulus (GPa) = 29.24975 11.55878 20.40427
#
# Velocity S-wave (km/s) = 3.86956 2.43252 3.23192
# Velocity P-wave (km/s) = 6.70126 5.73700 6.23779
#
# Compressibility (1/GPa) = 0.02052410
#
# Stress axis : x y z
#
# Youngs Moduli (GPa) = 57.59167 73.41266 39.09745
#
# Poissons Ratio (x) = -0.13246 0.44442
# Poissons Ratio (y) = -0.10391 0.33063
# Poissons Ratio (z) = 0.65464 0.62082
#
# Static dielectric constant tensor:
#      x y z
#    x 1.688300 0.000000 0.000000 
#    y 0.000000 1.726580 0.000000 
#    z 0.000000 0.000000 1.680720 
# 
# From -- ./inp_files/32763.got.cif
#   From: 2010.05.17/outbox.cif.g08.bks.cpg/sg74_17_cif.got.tgz:32763.got - 2010.06.03 17:57:02.
