data_PCOD9534416
_publ_section_title
;
Structure prediction by ZEFSAII (Michael W. Deem and Ramdas Pophale) SiO2 
 PCOD9534416
Probable space group: I M M A
;
_chemical_formula_sum "Si O2"
_cell_formula_units_Z 68
_cell_length_a 15.143079
_cell_length_b 10.634123
_cell_length_c 25.618690
_cell_angle_alpha 90.000000
_cell_angle_beta 90.000000
_cell_angle_gamma 90.000000
_cell_volume 4125.463850
_symmetry_space_group_name_H-M "I M M A"
_symmetry_group_IT_number 74
_symmetry_cell_setting 'orthorhombic'
loop_
_space_group_symop_operation_xyz
x,y,z
-x,1/2-y,z
x,-y,-z
-x,1/2+y,-z
-x,-y,-z
x,1/2+y,-z
-x,y,z
x,1/2-y,z
1/2+x,1/2+y,1/2+z
1/2-x,-y,1/2+z
1/2+x,1/2-y,1/2-z
1/2-x,y,1/2-z
1/2-x,1/2-y,1/2-z
1/2+x,y,1/2-z
1/2-x,1/2+y,1/2+z
1/2+x,-y,1/2+z
loop_
_atom_site_type_symbol
_atom_site_label
_atom_site_fract_x
_atom_site_fract_y
_atom_site_fract_z
Si Si1 0.500000 0.480018 0.823759
Si Si2 0.651085 0.750000 0.919401
Si Si3 0.323356 0.027950 0.893382
Si Si4 0.304947 0.901296 0.300880
Si Si5 0.896169 0.750000 0.461361
Si Si6 0.000000 0.392341 0.787722
Si Si7 0.500000 0.250000 0.168042
O O1 0.586421 0.468876 0.859147
O O2 0.500000 0.388071 0.775294
O O3 0.500000 0.621447 0.800734
O O4 0.696072 0.613280 0.913452
O O5 0.582088 0.750000 0.871607
O O6 0.606591 0.750000 0.976152
O O7 0.247416 0.069465 0.853576
O O8 0.345616 0.128016 0.938623
O O9 0.310572 0.750000 0.295037
O O10 0.250000 0.947689 0.250000
O O11 0.405448 0.950775 0.302228
O O12 0.000000 0.750000 0.445025
O O13 0.000000 0.250000 0.809091
#
# Coordination Sequence:
#
# PCOD9534416 Si02
#       7
#     8   8  16  16   8   8   4
#     4  10  18  29  47  74 105 143 169 206 255 305
#     4  10  22  36  48  73 110 144 173 216 263 310
#     4  11  21  34  52  76 109 145 175 212 260 311
#     4  10  19  32  51  78 106 136 177 216 257 311
#     4  12  22  32  55  80 105 143 184 212 253 314
#     4  10  20  30  51  77 108 135 174 219 258 295
#     4   8  18  32  44  64 108 142 172 200 252 310
#
# _framework density 16.482996
#
# number of rings (size 3 to 8) (size 9 to 14) (size 15 to 20)
#    0.000    1.647    5.294    0.706    1.647    0.941 
#    0.000    1.765    0.000    0.000    0.000    4.941 
#    0.000    0.000    0.000    0.000    0.000    0.000 
#
# Total GULP energy -189303.247017 kJ/mol
# GULP energy per Si atom -5567.742559 kJ/mol
# Density = 1.644548 g / cm^3
# Si number density = 16.482996 Si / 1000 Ang^3
#
#
#
# Elastic Constant Matrix: (Units=GPa)
#
#
# Indices 1 2 3 4 5 6 
#
# 1 112.9012 17.5098 30.4476 0.0000 0.0000 0.0000
# 2 17.5098 59.1315 11.4088 0.0000 0.0000 0.0000
# 3 30.4476 11.4088 49.7472 0.0000 0.0000 0.0000
# 4 0.0000 0.0000 0.0000 7.7145 0.0000 0.0000
# 5 0.0000 0.0000 0.0000 0.0000 -2.1380 0.0000
# 6 0.0000 0.0000 0.0000 0.0000 0.0000 8.6258
#
#
#
# Elastic Compliance Matrix: (Units=1/GPa)
#
#
# Indices 1 2 3 4 5 6 
#
# 1 0.010834 -0.002018 -0.006168 0.000000 0.000000 0.000000
# 2 -0.002018 0.018070 -0.002909 0.000000 0.000000 0.000000
# 3 -0.006168 -0.002909 0.024544 0.000000 0.000000 0.000000
# 4 0.000000 0.000000 0.000000 0.129626 0.000000 0.000000
# 5 0.000000 0.000000 0.000000 0.000000 -0.467724 0.000000
# 6 0.000000 0.000000 0.000000 0.000000 0.000000 0.115931
#
#
# Mechanical properties :
#
#
# Convention : Reuss Voigt Hill
#
# Bulk Modulus (GPa) = 31.99194 37.83470 34.91332
# Shear Modulus (GPa) = -36.73483 13.66805 -11.53339
#
# Velocity S-wave (km/s) = -4.72598 2.88274 -2.64808
# Velocity P-wave (km/s) = 3.21382 5.83814 3.44639
#
# Compressibility (1/GPa) = 0.03125787
#
# Stress axis : x y z
#
# Youngs Moduli (GPa) = 92.30500 55.33945 40.74344
#
# Poissons Ratio (x) = 0.11167 0.25130
# Poissons Ratio (y) = 0.18627 0.11853
# Poissons Ratio (z) = 0.56933 0.16099
#
# Static dielectric constant tensor:
#      x y z
#    x 1.601530 0.000000 0.000000 
#    y 0.000000 1.602040 0.000000 
#    z 0.000000 0.000000 1.522820 
# 
# From -- ./inp_files/50245.got.cif
#   From: 2010.05.17/outbox.cif.g08.bks.cpg/sg74_26_cif.got.tgz:50245.got - 2010.06.03 17:57:02.
