data_PCOD9534621
_publ_section_title
;
Structure prediction by ZEFSAII (Michael W. Deem and Ramdas Pophale) SiO2 
 PCOD9534621
Probable space group: I M M A
;
_chemical_formula_sum "Si O2"
_cell_formula_units_Z 80
_cell_length_a 8.558278
_cell_length_b 27.042685
_cell_length_c 19.481409
_cell_angle_alpha 90.000000
_cell_angle_beta 90.000000
_cell_angle_gamma 90.000000
_cell_volume 4508.754235
_symmetry_space_group_name_H-M "I M M A"
_symmetry_group_IT_number 74
_symmetry_cell_setting 'orthorhombic'
loop_
_space_group_symop_operation_xyz
x,y,z
-x,1/2-y,z
x,-y,-z
-x,1/2+y,-z
-x,-y,-z
x,1/2+y,-z
-x,y,z
x,1/2-y,z
1/2+x,1/2+y,1/2+z
1/2-x,-y,1/2+z
1/2+x,1/2-y,1/2-z
1/2-x,y,1/2-z
1/2-x,1/2-y,1/2-z
1/2+x,y,1/2-z
1/2-x,1/2+y,1/2+z
1/2+x,-y,1/2+z
loop_
_atom_site_type_symbol
_atom_site_label
_atom_site_fract_x
_atom_site_fract_y
_atom_site_fract_z
Si Si1 0.311600 0.750000 0.827959
Si Si2 0.812424 0.646142 0.172262
Si Si3 0.312168 0.447585 0.076957
Si Si4 0.186357 0.750000 0.328186
Si Si5 0.310995 0.142400 0.172362
Si Si6 0.312493 0.445877 0.577225
O O1 0.500000 0.750000 0.827471
O O2 0.250000 0.750000 0.750000
O O3 0.261894 0.803449 0.856504
O O4 0.750000 0.640456 0.250000
O O5 0.748335 0.698130 0.142639
O O6 0.765428 0.599363 0.126154
O O7 0.000000 0.648918 0.174853
O O8 0.500000 0.449014 0.075647
O O9 0.258816 0.403038 0.125655
O O10 0.250235 0.500857 0.101302
O O11 0.251619 0.439265 0.999753
O O12 0.250000 0.750000 0.250000
O O13 0.000000 0.750000 0.327716
O O14 0.500000 0.141510 0.174455
O O15 0.250000 0.137769 0.250000
O O16 0.500000 0.447712 0.574749
#
# Coordination Sequence:
#
# PCOD9534621 Si02
#       6
#     8  16  16   8  16  16
#     4   8  14  28  47  68  97 127 157 193 235 284
#     4  10  20  34  53  76 102 131 166 207 248 296
#     4  10  20  34  52  73  99 131 167 207 250 298
#     4  10  18  30  51  76 103 133 163 199 247 298
#     4   9  18  31  50  75 100 129 163 201 243 287
#     4  10  21  36  53  72  97 132 168 204 249 298
#
# _framework density 17.743259999999999
#
# number of rings (size 3 to 8) (size 9 to 14) (size 15 to 20)
#    0.000    2.400    0.000    5.100    0.000    5.600 
#    0.000    5.000    0.000    1.200    0.000    0.000 
#    0.000    0.000    0.000    0.000    0.000    0.000 
#
# Total GULP energy -222971.445394 kJ/mol
# GULP energy per Si atom -5574.286135 kJ/mol
# Density = 1.770288 g / cm^3
# Si number density = 17.743260 Si / 1000 Ang^3
#
#
#
# Elastic Constant Matrix: (Units=GPa)
#
#
# Indices 1 2 3 4 5 6 
#
# 1 48.5780 45.9207 18.4329 0.0000 0.0000 0.0000
# 2 45.9207 232.0603 85.5347 -0.0001 0.0000 0.0000
# 3 18.4329 85.5347 49.6740 -0.0004 0.0000 0.0000
# 4 0.0000 -0.0001 -0.0004 -90.7924 0.0000 0.0000
# 5 0.0000 0.0000 0.0000 0.0000 21.5188 0.0000
# 6 0.0000 0.0000 0.0000 0.0000 0.0000 27.3354
#
#
#
# Elastic Compliance Matrix: (Units=1/GPa)
#
#
# Indices 1 2 3 4 5 6 
#
# 1 0.025403 -0.004249 -0.002110 0.000000 0.000000 0.000000
# 2 -0.004249 0.012507 -0.019958 0.000000 0.000000 0.000000
# 3 -0.002110 -0.019958 0.055281 0.000000 0.000000 0.000000
# 4 0.000000 0.000000 0.000000 -0.011014 0.000000 0.000000
# 5 0.000000 0.000000 0.000000 0.000000 0.046471 0.000000
# 6 0.000000 0.000000 0.000000 0.000000 0.000000 0.036583
#
#
# Mechanical properties :
#
#
# Convention : Reuss Voigt Hill
#
# Bulk Modulus (GPa) = 24.65750 70.00988 47.33369
# Shear Modulus (GPa) = 21.60920 3.64061 12.62491
#
# Velocity S-wave (km/s) = 3.49360 1.43397 2.67035
# Velocity P-wave (km/s) = 5.49551 6.50266 6.02018
#
# Compressibility (1/GPa) = 0.04055561
#
# Stress axis : x y z
#
# Youngs Moduli (GPa) = 39.36598 79.95828 18.08937
#
# Poissons Ratio (x) = 0.33975 0.03816
# Poissons Ratio (y) = 0.16727 0.36104
# Poissons Ratio (z) = 0.08305 1.59585
#
# Static dielectric constant tensor:
#      x y z
#    x 1.602060 0.000000 0.000000 
#    y 0.000000 1.654380 0.000000 
#    z 0.000000 0.000000 1.547300 
# 
# From -- ./inp_files/48628.got.cif
#   From: 2010.05.17/outbox.cif.g08.bks.cpg/sg74_25_cif.got.tgz:48628.got - 2010.06.03 17:57:02.
