data_PCOD9535224
_publ_section_title
;
Structure prediction by ZEFSAII (Michael W. Deem and Ramdas Pophale) SiO2 
 PCOD9535224
Probable space group: I M M A
;
_chemical_formula_sum "Si O2"
_cell_formula_units_Z 80
_cell_length_a 9.052494
_cell_length_b 18.902408
_cell_length_c 37.318811
_cell_angle_alpha 90.000000
_cell_angle_beta 90.000000
_cell_angle_gamma 90.000000
_cell_volume 6385.768600
_symmetry_space_group_name_H-M "I M M A"
_symmetry_group_IT_number 74
_symmetry_cell_setting 'orthorhombic'
loop_
_space_group_symop_operation_xyz
x,y,z
-x,1/2-y,z
x,-y,-z
-x,1/2+y,-z
-x,-y,-z
x,1/2+y,-z
-x,y,z
x,1/2-y,z
1/2+x,1/2+y,1/2+z
1/2-x,-y,1/2+z
1/2+x,1/2-y,1/2-z
1/2-x,y,1/2-z
1/2-x,1/2-y,1/2-z
1/2+x,y,1/2-z
1/2-x,1/2+y,1/2+z
1/2+x,-y,1/2+z
loop_
_atom_site_type_symbol
_atom_site_label
_atom_site_fract_x
_atom_site_fract_y
_atom_site_fract_z
Si Si1 0.830451 0.464295 0.460396
Si Si2 0.324071 0.094338 0.570860
Si Si3 0.822311 0.332140 0.502202
Si Si4 0.670321 0.163965 0.713604
Si Si5 0.675434 0.165343 0.860779
O O1 0.830027 0.500000 0.500000
O O2 0.729087 0.513928 0.436301
O O3 0.783957 0.384095 0.469186
O O4 0.000000 0.465988 0.447395
O O5 0.500000 0.098939 0.571298
O O6 0.259171 0.140058 0.537695
O O7 0.255091 0.124902 0.607115
O O8 0.790488 0.250000 0.495870
O O9 0.000000 0.339954 0.507874
O O10 0.500000 0.141048 0.712287
O O11 0.670301 0.250000 0.714524
O O12 0.750000 0.139957 0.750000
O O13 0.757484 0.144217 0.677652
O O14 0.500000 0.153029 0.861670
O O15 0.699394 0.250000 0.865231
#
# Coordination Sequence:
#
# PCOD9535224 Si02
#       5
#    16  16  16  16  16
#     4   8  15  28  42  53  68  92 119 146 179 220
#     4  11  20  27  37  54  75  96 119 150 187 223
#     4   9  17  29  43  56  70  91 120 152 185 221
#     4   9  16  26  39  54  72  93 118 148 181 216
#     4  10  19  29  40  53  70  94 124 156 188 219
#
# _framework density 12.527856999999999
#
# number of rings (size 3 to 8) (size 9 to 14) (size 15 to 20)
#    0.000    2.600    0.000    4.800    0.000   10.000 
#    0.000    0.000    0.000    0.000    0.000    0.000 
#    0.000    0.000    0.000    0.000    0.000    1.000 
#
# Total GULP energy -222849.560316 kJ/mol
# GULP energy per Si atom -5571.239008 kJ/mol
# Density = 1.249934 g / cm^3
# Si number density = 12.527857 Si / 1000 Ang^3
#
#
#
# Elastic Constant Matrix: (Units=GPa)
#
#
# Indices 1 2 3 4 5 6 
#
# 1 88.7865 43.8760 59.9651 0.0000 0.0000 0.0000
# 2 43.8760 78.6932 43.7336 0.0000 0.0000 0.0000
# 3 59.9651 43.7336 83.0003 0.0000 0.0000 0.0000
# 4 0.0000 0.0000 0.0000 13.7794 0.0000 0.0000
# 5 0.0000 0.0000 0.0000 0.0000 20.8998 0.0000
# 6 0.0000 0.0000 0.0000 0.0000 0.0000 10.5635
#
#
#
# Elastic Compliance Matrix: (Units=1/GPa)
#
#
# Indices 1 2 3 4 5 6 
#
# 1 0.023390 -0.005161 -0.014179 0.000000 0.000000 0.000000
# 2 -0.005161 0.019109 -0.006340 0.000000 0.000000 0.000000
# 3 -0.014179 -0.006340 0.025632 0.000000 0.000000 0.000000
# 4 0.000000 0.000000 0.000000 0.072572 0.000000 0.000000
# 5 0.000000 0.000000 0.000000 0.000000 0.047847 0.000000
# 6 0.000000 0.000000 0.000000 0.000000 0.000000 0.094665
#
#
# Mechanical properties :
#
#
# Convention : Reuss Voigt Hill
#
# Bulk Modulus (GPa) = 59.62616 60.62548 60.12582
# Shear Modulus (GPa) = 14.69874 15.90889 15.30382
#
# Velocity S-wave (km/s) = 3.42904 3.56741 3.49891
# Velocity P-wave (km/s) = 7.96090 8.09111 8.02627
#
# Compressibility (1/GPa) = 0.01677116
#
# Stress axis : x y z
#
# Youngs Moduli (GPa) = 42.75382 52.33271 39.01334
#
# Poissons Ratio (x) = 0.27010 0.55316
# Poissons Ratio (y) = 0.22067 0.24733
# Poissons Ratio (z) = 0.60620 0.33177
#
# Static dielectric constant tensor:
#      x y z
#    x 1.416910 0.000000 0.000000 
#    y 0.000000 1.414360 0.000000 
#    z 0.000000 0.000000 1.387780 
# 
# From -- ./inp_files/70118.got.cif
#   From: 2010.05.17/outbox.cif.g08.bks.cpg/sg74_36_cif.got.tgz:70118.got - 2010.06.03 17:57:02.
