data_PCOD9535956
_publ_section_title
;
Structure prediction by ZEFSAII (Michael W. Deem and Ramdas Pophale) SiO2 
 PCOD9535956
Probable space group: I M M A
;
_chemical_formula_sum "Si O2"
_cell_formula_units_Z 112
_cell_length_a 14.537457
_cell_length_b 14.543458
_cell_length_c 26.496230
_cell_angle_alpha 90.000000
_cell_angle_beta 90.000000
_cell_angle_gamma 90.000000
_cell_volume 5601.962654
_symmetry_space_group_name_H-M "I M M A"
_symmetry_group_IT_number 74
_symmetry_cell_setting 'orthorhombic'
loop_
_space_group_symop_operation_xyz
x,y,z
-x,1/2-y,z
x,-y,-z
-x,1/2+y,-z
-x,-y,-z
x,1/2+y,-z
-x,y,z
x,1/2-y,z
1/2+x,1/2+y,1/2+z
1/2-x,-y,1/2+z
1/2+x,1/2-y,1/2-z
1/2-x,y,1/2-z
1/2-x,1/2-y,1/2-z
1/2+x,y,1/2-z
1/2-x,1/2+y,1/2+z
1/2+x,-y,1/2+z
loop_
_atom_site_type_symbol
_atom_site_label
_atom_site_fract_x
_atom_site_fract_y
_atom_site_fract_z
Si Si1 0.891771 0.647145 0.360484
Si Si2 0.151160 0.145518 0.222654
Si Si3 0.793188 0.642783 0.085160
Si Si4 0.893823 0.360049 0.417666
Si Si5 0.104592 0.461894 0.318906
Si Si6 0.610740 0.465391 0.378512
Si Si7 0.791034 0.859866 0.968597
O O1 0.880208 0.750000 0.339836
O O2 0.816908 0.635571 0.404760
O O3 0.864882 0.567241 0.321162
O O4 0.000000 0.466097 0.335340
O O5 0.116738 0.250000 0.216342
O O6 0.250000 0.151849 0.250000
O O7 0.102851 0.085635 0.265385
O O8 0.145844 0.091139 0.170374
O O9 0.817580 0.750000 0.095220
O O10 0.845984 0.567610 0.118528
O O11 0.813820 0.621810 0.026725
O O12 0.895050 0.250000 0.411122
O O13 0.855583 0.402524 0.365019
O O14 0.816209 0.383892 0.458340
O O15 0.000000 0.386464 0.429947
O O16 0.000000 0.640173 0.375694
O O17 0.500000 0.468611 0.377096
O O18 0.646720 0.412930 0.428440
O O19 0.800460 0.750000 0.960254
#
# Coordination Sequence:
#
# PCOD9535956 Si02
#       7
#    16  16  16  16  16  16  16
#     4   9  18  34  58  88 120 153 191 238 293 352
#     4  11  23  39  62  89 115 144 180 228 288 350
#     4  10  22  40  61  84 113 153 201 250 297 346
#     4   9  17  30  52  85 123 157 188 230 290 359
#     4  10  19  32  52  79 113 150 183 218 268 337
#     4  12  26  42  60  84 117 156 199 247 293 338
#     4  10  21  37  58  85 116 152 197 247 298 351
#
# _framework density 19.992992000000001
#
# number of rings (size 3 to 8) (size 9 to 14) (size 15 to 20)
#    0.000    1.857    0.000    4.286    0.000    6.857 
#    0.000    5.000    0.000    8.571    0.000    0.000 
#    0.000    0.000    0.000    0.000    0.000    0.000 
#
# Total GULP energy -312026.314454 kJ/mol
# GULP energy per Si atom -5571.898472 kJ/mol
# Density = 1.994749 g / cm^3
# Si number density = 19.992992 Si / 1000 Ang^3
#
#
#
# Elastic Constant Matrix: (Units=GPa)
#
#
# Indices 1 2 3 4 5 6 
#
# 1 97.7613 42.0779 21.2408 0.0000 0.0000 0.0000
# 2 42.0779 106.6913 72.3349 0.0000 0.0000 0.0000
# 3 21.2408 72.3349 82.8118 0.0000 0.0000 0.0000
# 4 0.0000 0.0000 0.0000 30.0828 0.0000 0.0000
# 5 0.0000 0.0000 0.0000 0.0000 19.6938 0.0000
# 6 0.0000 0.0000 0.0000 0.0000 0.0000 19.2798
#
#
#
# Elastic Compliance Matrix: (Units=1/GPa)
#
#
# Indices 1 2 3 4 5 6 
#
# 1 0.012564 -0.006793 0.002711 0.000000 0.000000 0.000000
# 2 -0.006793 0.026657 -0.021542 0.000000 0.000000 0.000000
# 3 0.002711 -0.021542 0.030197 0.000000 0.000000 0.000000
# 4 0.000000 0.000000 0.000000 0.033242 0.000000 0.000000
# 5 0.000000 0.000000 0.000000 0.000000 0.050777 0.000000
# 6 0.000000 0.000000 0.000000 0.000000 0.000000 0.051868
#
#
# Mechanical properties :
#
#
# Convention : Reuss Voigt Hill
#
# Bulk Modulus (GPa) = 55.03718 62.06350 58.55034
# Shear Modulus (GPa) = 19.03961 23.91866 21.47913
#
# Velocity S-wave (km/s) = 3.08931 3.46258 3.28126
# Velocity P-wave (km/s) = 6.34926 6.86265 6.61094
#
# Compressibility (1/GPa) = 0.01816954
#
# Stress axis : x y z
#
# Youngs Moduli (GPa) = 79.59368 37.51310 33.11575
#
# Poissons Ratio (x) = 0.25483 -0.08978
# Poissons Ratio (y) = 0.54069 0.71339
# Poissons Ratio (z) = -0.21579 0.80812
#
# Static dielectric constant tensor:
#      x y z
#    x 1.560800 0.000000 0.000000 
#    y 0.000000 1.788500 0.000000 
#    z 0.000000 0.000000 1.669220 
# 
# From -- ./inp_files/60178.got.cif
#   From: 2010.05.17/outbox.cif.g08.bks.cpg/sg74_31_cif.got.tgz:60178.got - 2010.06.03 17:57:02.
