data_PCOD9535232
_publ_section_title
;
Structure prediction by ZEFSAII (Michael W. Deem and Ramdas Pophale) SiO2 
 PCOD9535232
Probable space group: I M M A
;
_chemical_formula_sum "Si O2"
_cell_formula_units_Z 96
_cell_length_a 9.089445
_cell_length_b 31.703083
_cell_length_c 21.372720
_cell_angle_alpha 90.000000
_cell_angle_beta 90.000000
_cell_angle_gamma 90.000000
_cell_volume 6158.836288
_symmetry_space_group_name_H-M "I M M A"
_symmetry_group_IT_number 74
_symmetry_cell_setting 'orthorhombic'
loop_
_space_group_symop_operation_xyz
x,y,z
-x,1/2-y,z
x,-y,-z
-x,1/2+y,-z
-x,-y,-z
x,1/2+y,-z
-x,y,z
x,1/2-y,z
1/2+x,1/2+y,1/2+z
1/2-x,-y,1/2+z
1/2+x,1/2-y,1/2-z
1/2-x,y,1/2-z
1/2-x,1/2-y,1/2-z
1/2+x,y,1/2-z
1/2-x,1/2+y,1/2+z
1/2+x,-y,1/2+z
loop_
_atom_site_type_symbol
_atom_site_label
_atom_site_fract_x
_atom_site_fract_y
_atom_site_fract_z
Si Si1 0.670143 0.402231 0.157222
Si Si2 0.671363 0.880862 0.988804
Si Si3 0.822841 0.203587 0.047277
Si Si4 0.176096 0.500746 0.686174
Si Si5 0.826146 0.318010 0.188013
Si Si6 0.679809 0.965503 0.052100
O O1 0.500000 0.392349 0.175073
O O2 0.677303 0.399236 0.081916
O O3 0.706150 0.449309 0.178121
O O4 0.779559 0.367069 0.182924
O O5 0.500000 0.872966 0.003216
O O6 0.755576 0.836590 0.987588
O O7 0.727708 0.918569 0.032622
O O8 0.779520 0.250000 0.023676
O O9 0.778785 0.200454 0.120803
O O10 0.000000 0.200543 0.045682
O O11 0.250000 0.485528 0.750000
O O12 0.225318 0.478659 0.621788
O O13 0.000000 0.496030 0.690629
O O14 0.750000 0.300477 0.250000
O O15 0.000000 0.312983 0.193429
O O16 0.500000 0.965646 0.050640
O O17 0.726212 0.000000 0.000000
#
# Coordination Sequence:
#
# PCOD9535232 Si02
#       6
#    16  16  16  16  16  16
#     4   9  16  27  43  62  84 113 149 188 225 259
#     4   9  16  28  49  71  86 108 151 195 223 257
#     4   9  19  34  47  60  84 115 142 177 232 284
#     4  10  19  29  43  64  92 124 155 187 223 265
#     4  10  19  29  41  57  79 110 148 186 225 267
#     4   9  15  28  49  69  90 121 157 189 224 268
#
# _framework density 15.587361
#
# number of rings (size 3 to 8) (size 9 to 14) (size 15 to 20)
#    0.000    2.667    1.667    1.000    0.000    3.333 
#    0.000    0.833    0.000    1.000    0.000    0.000 
#    0.000    0.667    0.000    1.500    0.000    2.667 
#
# Total GULP energy -267526.017286 kJ/mol
# GULP energy per Si atom -5573.458693 kJ/mol
# Density = 1.555188 g / cm^3
# Si number density = 15.587361 Si / 1000 Ang^3
#
#
#
# Elastic Constant Matrix: (Units=GPa)
#
#
# Indices 1 2 3 4 5 6 
#
# 1 13.9697 29.1052 17.8886 0.0000 0.0000 0.0000
# 2 29.1052 117.2807 54.5760 0.0000 0.0000 0.0000
# 3 17.8886 54.5760 80.8498 0.0000 0.0000 0.0000
# 4 0.0000 0.0000 0.0000 1.5033 0.0000 0.0000
# 5 0.0000 0.0000 0.0000 0.0000 18.6011 0.0000
# 6 0.0000 0.0000 0.0000 0.0000 0.0000 6.7866
#
#
#
# Elastic Compliance Matrix: (Units=1/GPa)
#
#
# Indices 1 2 3 4 5 6 
#
# 1 0.156096 -0.033047 -0.012230 0.000001 0.000000 0.000000
# 2 -0.033047 0.019428 -0.005803 0.000000 0.000000 0.000000
# 3 -0.012230 -0.005803 0.018991 0.000000 0.000000 0.000000
# 4 0.000001 0.000000 0.000000 0.665190 0.000000 0.000000
# 5 0.000000 0.000000 0.000000 0.000000 0.053760 0.000000
# 6 0.000000 0.000000 0.000000 0.000000 0.000000 0.147350
#
#
# Mechanical properties :
#
#
# Convention : Reuss Voigt Hill
#
# Bulk Modulus (GPa) = 10.82757 46.13776 28.48266
# Shear Modulus (GPa) = 4.18845 12.74690 8.46768
#
# Velocity S-wave (km/s) = 1.64101 2.86277 2.33328
# Velocity P-wave (km/s) = 3.24839 6.37111 5.05683
#
# Compressibility (1/GPa) = 0.09235680
#
# Stress axis : x y z
#
# Youngs Moduli (GPa) = 6.40633 51.47272 52.65530
#
# Poissons Ratio (x) = 1.70100 0.64397
# Poissons Ratio (y) = 0.21171 0.30553
# Poissons Ratio (z) = 0.07835 0.29867
#
# Static dielectric constant tensor:
#      x y z
#    x 1.526870 0.000000 0.000000 
#    y 0.000000 1.531900 0.000000 
#    z 0.000000 0.000000 1.525930 
# 
# From -- ./inp_files/57478.got.cif
#   From: 2010.05.17/outbox.cif.g08.bks.cpg/sg74_29_cif.got.tgz:57478.got - 2010.06.03 17:57:02.
