data_PCOD9535943
_publ_section_title
;
Structure prediction by ZEFSAII (Michael W. Deem and Ramdas Pophale) SiO2 
 PCOD9535943
Probable space group: I M M A
;
_chemical_formula_sum "Si O2"
_cell_formula_units_Z 88
_cell_length_a 25.898732
_cell_length_b 7.638686
_cell_length_c 20.230984
_cell_angle_alpha 90.000000
_cell_angle_beta 90.000000
_cell_angle_gamma 90.000000
_cell_volume 4002.341723
_symmetry_space_group_name_H-M "I M M A"
_symmetry_group_IT_number 74
_symmetry_cell_setting 'orthorhombic'
loop_
_space_group_symop_operation_xyz
x,y,z
-x,1/2-y,z
x,-y,-z
-x,1/2+y,-z
-x,-y,-z
x,1/2+y,-z
-x,y,z
x,1/2-y,z
1/2+x,1/2+y,1/2+z
1/2-x,-y,1/2+z
1/2+x,1/2-y,1/2-z
1/2-x,y,1/2-z
1/2-x,1/2-y,1/2-z
1/2+x,y,1/2-z
1/2-x,1/2+y,1/2+z
1/2+x,-y,1/2+z
loop_
_atom_site_type_symbol
_atom_site_label
_atom_site_fract_x
_atom_site_fract_y
_atom_site_fract_z
Si Si1 0.296840 0.053834 0.293886
Si Si2 0.638473 0.040904 0.071527
Si Si3 0.555203 0.537216 0.825621
Si Si4 0.000000 0.460620 0.078464
Si Si5 0.256420 0.553776 0.427206
Si Si6 0.412573 0.536649 0.680432
O O1 0.305020 0.250000 0.264877
O O2 0.250000 0.973032 0.250000
O O3 0.353755 0.974441 0.305517
O O4 0.275389 0.063539 0.367845
O O5 0.645983 0.250000 0.076906
O O6 0.602869 0.976458 0.130737
O O7 0.694510 0.954720 0.072549
O O8 0.614543 0.000000 0.000000
O O9 0.500000 0.478560 0.852419
O O10 0.556532 0.750000 0.828641
O O11 0.559320 0.492416 0.748856
O O12 0.948338 0.521962 0.118687
O O13 0.000000 0.250000 0.084449
O O14 0.000000 0.500000 0.000000
O O15 0.274336 0.500000 0.500000
O O16 0.273722 0.750000 0.413180
O O17 0.409027 0.750000 0.674568
#
# Coordination Sequence:
#
# PCOD9535943 Si02
#       6
#    16  16  16   8  16  16
#     4  10  20  35  57  86 116 146 186 231 280 340
#     4  10  19  32  52  78 109 144 181 223 269 322
#     4   9  16  29  52  80 106 137 181 225 264 311
#     4  10  20  36  58  82 109 142 184 230 281 334
#     4  11  22  37  56  77 107 145 185 229 278 333
#     4   9  17  32  55  81 109 141 179 227 276 327
#
# _framework density 21.987127999999998
#
# number of rings (size 3 to 8) (size 9 to 14) (size 15 to 20)
#    0.000    2.182    0.909    4.364    0.000    4.364 
#    0.000    2.727    0.000    3.818    0.000    0.000 
#    0.000    0.000    0.000    0.000    0.000    0.000 
#
# Total GULP energy -245377.531942 kJ/mol
# GULP energy per Si atom -5576.762090 kJ/mol
# Density = 2.193708 g / cm^3
# Si number density = 21.987128 Si / 1000 Ang^3
#
#
#
# Elastic Constant Matrix: (Units=GPa)
#
#
# Indices 1 2 3 4 5 6 
#
# 1 125.4848 -0.2514 50.5908 0.0000 0.0000 0.0000
# 2 -0.2514 65.9846 -3.9578 0.0000 0.0000 0.0000
# 3 50.5908 -3.9578 105.0058 0.0000 0.0000 0.0000
# 4 0.0000 0.0000 0.0000 15.1044 0.0000 0.0000
# 5 0.0000 0.0000 0.0000 0.0000 37.7650 0.0000
# 6 0.0000 0.0000 0.0000 0.0000 0.0000 3.4125
#
#
#
# Elastic Compliance Matrix: (Units=1/GPa)
#
#
# Indices 1 2 3 4 5 6 
#
# 1 0.009894 -0.000249 -0.004776 0.000000 0.000000 0.000000
# 2 -0.000249 0.015196 0.000693 0.000000 0.000000 0.000000
# 3 -0.004776 0.000693 0.011851 0.000000 0.000000 0.000000
# 4 0.000000 0.000000 0.000000 0.066206 0.000000 0.000000
# 5 0.000000 0.000000 0.000000 0.000000 0.026480 0.000000
# 6 0.000000 0.000000 0.000000 0.000000 0.000000 0.293042
#
#
# Mechanical properties :
#
#
# Convention : Reuss Voigt Hill
#
# Bulk Modulus (GPa) = 35.36640 43.24872 39.30756
# Shear Modulus (GPa) = 11.34409 27.92927 19.63668
#
# Velocity S-wave (km/s) = 2.27390 3.56793 2.99172
# Velocity P-wave (km/s) = 4.79730 6.05692 5.46353
#
# Compressibility (1/GPa) = 0.02827542
#
# Stress axis : x y z
#
# Youngs Moduli (GPa) = 101.06902 65.80837 84.38406
#
# Poissons Ratio (x) = 0.01637 0.40305
# Poissons Ratio (y) = 0.02514 -0.05844
# Poissons Ratio (z) = 0.48274 -0.04558
#
# Static dielectric constant tensor:
#      x y z
#    x 1.835090 0.000000 0.000000 
#    y 0.000000 1.858840 0.000000 
#    z 0.000000 0.000000 1.787730 
# 
# From -- ./inp_files/48698.got.cif
#   From: 2010.05.17/outbox.cif.g08.bks.cpg/sg74_25_cif.got.tgz:48698.got - 2010.06.03 17:57:02.
