data_PCOD9535785
_publ_section_title
;
Structure prediction by ZEFSAII (Michael W. Deem and Ramdas Pophale) SiO2 
 PCOD9535785
Probable space group: I M M A
;
_chemical_formula_sum "Si O2"
_cell_formula_units_Z 116
_cell_length_a 7.986014
_cell_length_b 31.627756
_cell_length_c 26.781549
_cell_angle_alpha 90.000000
_cell_angle_beta 90.000000
_cell_angle_gamma 90.000000
_cell_volume 6764.475671
_symmetry_space_group_name_H-M "I M M A"
_symmetry_group_IT_number 74
_symmetry_cell_setting 'orthorhombic'
loop_
_space_group_symop_operation_xyz
x,y,z
-x,1/2-y,z
x,-y,-z
-x,1/2+y,-z
-x,-y,-z
x,1/2+y,-z
-x,y,z
x,1/2-y,z
1/2+x,1/2+y,1/2+z
1/2-x,-y,1/2+z
1/2+x,1/2-y,1/2-z
1/2-x,y,1/2-z
1/2-x,1/2-y,1/2-z
1/2+x,y,1/2-z
1/2-x,1/2+y,1/2+z
1/2+x,-y,1/2+z
loop_
_atom_site_type_symbol
_atom_site_label
_atom_site_fract_x
_atom_site_fract_y
_atom_site_fract_z
Si Si1 0.699609 0.298054 0.567040
Si Si2 0.807951 0.057031 0.968711
Si Si3 0.700162 0.442959 0.692824
Si Si4 0.805627 0.186411 0.050419
Si Si5 0.690995 0.381235 0.886970
Si Si6 0.000000 0.250000 0.424696
Si Si7 0.809644 0.404719 0.429737
Si Si8 0.298336 0.509845 0.610505
O O1 0.500000 0.298059 0.574861
O O2 0.762088 0.250000 0.572359
O O3 0.727122 0.311976 0.509549
O O4 0.778504 0.331977 0.604129
O O5 0.804348 0.093135 0.926181
O O6 0.000000 0.050208 0.985051
O O7 0.744241 0.015661 0.939483
O O8 0.708706 0.074047 0.015701
O O9 0.500000 0.441301 0.689380
O O10 0.750000 0.447616 0.750000
O O11 0.770580 0.400555 0.667042
O O12 0.758847 0.482116 0.657869
O O13 0.652659 0.213588 0.072934
O O14 0.795452 0.138199 0.069154
O O15 0.000000 0.201164 0.057623
O O16 0.500000 0.391324 0.899947
O O17 0.757495 0.441941 0.392127
O O18 0.000000 0.392780 0.420720
O O19 0.500000 0.508693 0.609930
#
# Coordination Sequence:
#
# PCOD9535785 Si02
#       8
#    16  16  16  16  16   4  16  16
#     4  10  20  33  49  69  97 135 174 215 271 315
#     4  10  19  32  48  66  98 139 176 216 261 310
#     4  10  21  39  60  78 100 129 169 212 265 321
#     4  11  22  35  51  71 104 144 181 229 268 305
#     4  11  21  31  50  76 101 128 170 219 262 310
#     4  12  22  36  52  74  98 136 206 216 260 318
#     4  12  22  31  46  73 105 140 181 218 257 310
#     4   9  20  35  50  71  99 136 172 209 263 318
#
# _framework density 17.148409999999998
#
# number of rings (size 3 to 8) (size 9 to 14) (size 15 to 20)
#    0.000    1.517    2.759    4.759    0.966    5.241 
#    0.000    0.000    0.000    0.414    0.000    0.000 
#    0.000    0.000    0.000    0.621    3.862    1.241 
#
# Total GULP energy -323118.104063 kJ/mol
# GULP energy per Si atom -5571.001794 kJ/mol
# Density = 1.710938 g / cm^3
# Si number density = 17.148410 Si / 1000 Ang^3
#
#
#
# Elastic Constant Matrix: (Units=GPa)
#
#
# Indices 1 2 3 4 5 6 
#
# 1 72.0416 26.4444 2.1436 0.0000 0.0000 0.0000
# 2 26.4444 135.7054 23.9700 0.0000 0.0000 0.0000
# 3 2.1436 23.9700 33.5776 0.0000 0.0000 0.0000
# 4 0.0000 0.0000 0.0000 6.6039 0.0000 0.0000
# 5 0.0000 0.0000 0.0000 0.0000 16.8650 0.0000
# 6 0.0000 0.0000 0.0000 0.0000 0.0000 28.1610
#
#
#
# Elastic Compliance Matrix: (Units=1/GPa)
#
#
# Indices 1 2 3 4 5 6 
#
# 1 0.014999 -0.003151 0.001292 0.000000 0.000000 0.000000
# 2 -0.003151 0.009094 -0.006291 0.000000 0.000000 0.000000
# 3 0.001292 -0.006291 0.034190 0.000000 0.000000 0.000000
# 4 0.000000 0.000000 0.000000 0.151426 0.000000 0.000000
# 5 0.000000 0.000000 0.000000 0.000000 0.059294 0.000000
# 6 0.000000 0.000000 0.000000 0.000000 0.000000 0.035510
#
#
# Mechanical properties :
#
#
# Convention : Reuss Voigt Hill
#
# Bulk Modulus (GPa) = 23.81896 38.49339 31.15618
# Shear Modulus (GPa) = 14.93394 22.91042 18.92218
#
# Velocity S-wave (km/s) = 2.95424 3.65911 3.32541
# Velocity P-wave (km/s) = 5.05537 6.35201 5.74042
#
# Compressibility (1/GPa) = 0.04198335
#
# Stress axis : x y z
#
# Youngs Moduli (GPa) = 66.67083 109.96153 29.24820
#
# Poissons Ratio (x) = 0.34649 -0.03778
# Poissons Ratio (y) = 0.21008 0.18400
# Poissons Ratio (z) = -0.08613 0.69175
#
# Static dielectric constant tensor:
#      x y z
#    x 1.612110 0.000000 0.000000 
#    y 0.000000 1.623910 0.000000 
#    z 0.000000 0.000000 1.555960 
# 
# From -- ./inp_files/65342.got.cif
#   From: 2010.05.17/outbox.cif.g08.bks.cpg/sg74_33_cif.got.tgz:65342.got - 2010.06.03 17:57:02.
