data_PCOD9535924
_publ_section_title
;
Structure prediction by ZEFSAII (Michael W. Deem and Ramdas Pophale) SiO2 
 PCOD9535924
Probable space group: I M M A
;
_chemical_formula_sum "Si O2"
_cell_formula_units_Z 80
_cell_length_a 9.200582
_cell_length_b 17.474366
_cell_length_c 26.282602
_cell_angle_alpha 90.000000
_cell_angle_beta 90.000000
_cell_angle_gamma 90.000000
_cell_volume 4225.567919
_symmetry_space_group_name_H-M "I M M A"
_symmetry_group_IT_number 74
_symmetry_cell_setting 'orthorhombic'
loop_
_space_group_symop_operation_xyz
x,y,z
-x,1/2-y,z
x,-y,-z
-x,1/2+y,-z
-x,-y,-z
x,1/2+y,-z
-x,y,z
x,1/2-y,z
1/2+x,1/2+y,1/2+z
1/2-x,-y,1/2+z
1/2+x,1/2-y,1/2-z
1/2-x,y,1/2-z
1/2-x,1/2-y,1/2-z
1/2+x,y,1/2-z
1/2-x,1/2+y,1/2+z
1/2+x,-y,1/2+z
loop_
_atom_site_type_symbol
_atom_site_label
_atom_site_fract_x
_atom_site_fract_y
_atom_site_fract_z
Si Si1 0.174920 0.451674 0.088758
Si Si2 0.333544 0.557755 0.700338
Si Si3 0.668673 0.629086 0.301215
Si Si4 0.828124 0.115323 0.597215
Si Si5 0.669936 0.163720 0.016132
O O1 0.217091 0.417897 0.144318
O O2 0.254310 0.533234 0.086111
O O3 0.229206 0.396821 0.044375
O O4 0.000000 0.462009 0.088007
O O5 0.500000 0.580198 0.705738
O O6 0.250000 0.584461 0.750000
O O7 0.327460 0.464457 0.699457
O O8 0.500000 0.651923 0.301517
O O9 0.750000 0.654836 0.250000
O O10 0.750395 0.650365 0.353254
O O11 0.811102 0.160568 0.544713
O O12 0.000000 0.106238 0.607900
O O13 0.500000 0.144766 0.025996
O O14 0.698491 0.250000 0.033908
#
# Coordination Sequence:
#
# PCOD9535924 Si02
#       5
#    16  16  16  16  16
#     4  10  20  33  51  77 105 131 165 209 252 299
#     4   8  15  26  42  68  99 127 155 192 238 286
#     4   9  16  27  45  72 104 133 163 202 248 297
#     4  10  19  32  52  76 102 133 168 208 253 300
#     4  10  22  38  53  71  98 133 172 212 256 306
#
# _framework density 18.932366999999999
#
# number of rings (size 3 to 8) (size 9 to 14) (size 15 to 20)
#    0.000    2.600    0.000    3.600    0.000   10.000 
#    0.000    0.000    0.000    1.200    0.000    0.000 
#    0.000    0.000    0.000    0.000    0.000    0.000 
#
# Total GULP energy -223112.117777 kJ/mol
# GULP energy per Si atom -5577.802944 kJ/mol
# Density = 1.888928 g / cm^3
# Si number density = 18.932367 Si / 1000 Ang^3
#
#
#
# Elastic Constant Matrix: (Units=GPa)
#
#
# Indices 1 2 3 4 5 6 
#
# 1 96.2215 32.6057 60.7631 0.0000 0.0000 0.0000
# 2 32.6057 38.6377 27.8259 0.0000 0.0000 0.0000
# 3 60.7631 27.8259 109.6644 0.0000 0.0000 0.0000
# 4 0.0000 0.0000 0.0000 -12.6235 0.0000 0.0000
# 5 0.0000 0.0000 0.0000 0.0000 41.3945 0.0000
# 6 0.0000 0.0000 0.0000 0.0000 0.0000 -9.8940
#
#
#
# Elastic Compliance Matrix: (Units=1/GPa)
#
#
# Indices 1 2 3 4 5 6 
#
# 1 0.018798 -0.010232 -0.007819 0.000000 0.000000 0.000000
# 2 -0.010232 0.037238 -0.003779 0.000000 0.000000 0.000000
# 3 -0.007819 -0.003779 0.014410 0.000000 0.000000 0.000000
# 4 0.000000 0.000000 0.000000 -0.079217 0.000000 0.000000
# 5 0.000000 0.000000 0.000000 0.000000 0.024158 0.000000
# 6 0.000000 0.000000 0.000000 0.000000 0.000000 -0.101071
#
#
# Mechanical properties :
#
#
# Convention : Reuss Voigt Hill
#
# Bulk Modulus (GPa) = 37.33461 54.10145 45.71803
# Shear Modulus (GPa) = -151.07504 11.99732 -69.53886
#
# Velocity S-wave (km/s) = -8.94262 2.52006 -6.06711
# Velocity P-wave (km/s) = 9.32011 6.09145 4.98792
#
# Compressibility (1/GPa) = 0.02678480
#
# Stress axis : x y z
#
# Youngs Moduli (GPa) = 53.19817 26.85453 69.39532
#
# Poissons Ratio (x) = 0.27477 0.54262
# Poissons Ratio (y) = 0.54431 0.26227
# Poissons Ratio (z) = 0.41597 0.10149
#
# Static dielectric constant tensor:
#      x y z
#    x 1.641000 0.000000 0.000000 
#    y 0.000000 1.630550 0.000000 
#    z 0.000000 0.000000 1.677700 
# 
# From -- ./inp_files/63889.got.cif
#   From: 2010.05.17/outbox.cif.g08.bks.cpg/sg74_32_cif.got.tgz:63889.got - 2010.06.03 17:57:02.
