data_PCOD9535280
_publ_section_title
;
Structure prediction by ZEFSAII (Michael W. Deem and Ramdas Pophale) SiO2 
 PCOD9535280
Probable space group: I M M A
;
_chemical_formula_sum "Si O2"
_cell_formula_units_Z 96
_cell_length_a 14.750465
_cell_length_b 14.517106
_cell_length_c 27.947085
_cell_angle_alpha 90.000000
_cell_angle_beta 90.000000
_cell_angle_gamma 90.000000
_cell_volume 5984.422887
_symmetry_space_group_name_H-M "I M M A"
_symmetry_group_IT_number 74
_symmetry_cell_setting 'orthorhombic'
loop_
_space_group_symop_operation_xyz
x,y,z
-x,1/2-y,z
x,-y,-z
-x,1/2+y,-z
-x,-y,-z
x,1/2+y,-z
-x,y,z
x,1/2-y,z
1/2+x,1/2+y,1/2+z
1/2-x,-y,1/2+z
1/2+x,1/2-y,1/2-z
1/2-x,y,1/2-z
1/2-x,1/2-y,1/2-z
1/2+x,y,1/2-z
1/2-x,1/2+y,1/2+z
1/2+x,-y,1/2+z
loop_
_atom_site_type_symbol
_atom_site_label
_atom_site_fract_x
_atom_site_fract_y
_atom_site_fract_z
Si Si1 0.896554 0.942068 0.277416
Si Si2 0.210719 0.860830 0.368203
Si Si3 0.103240 0.639467 0.174823
Si Si4 0.104434 0.149984 0.381436
Si Si5 0.344082 0.648374 0.777956
Si Si6 0.107191 0.471917 0.553774
O O1 0.838754 0.909585 0.322969
O O2 0.868776 0.895102 0.227605
O O3 0.000000 0.914750 0.287523
O O4 0.892986 0.051893 0.268516
O O5 0.200769 0.750000 0.364349
O O6 0.317264 0.885234 0.362204
O O7 0.165806 0.897527 0.417126
O O8 0.099991 0.750000 0.176386
O O9 0.000000 0.606299 0.165042
O O10 0.114313 0.250000 0.405196
O O11 0.167731 0.146288 0.335321
O O12 0.116644 0.065379 0.415870
O O13 0.000000 0.144838 0.362992
O O14 0.385827 0.750000 0.767520
O O15 0.250000 0.644887 0.750000
O O16 0.133509 0.500000 0.500000
O O17 0.000000 0.445406 0.553432
#
# Coordination Sequence:
#
# PCOD9535280 Si02
#       6
#    16  16  16  16  16  16
#     4  11  20  30  47  73 106 139 166 197 240 293
#     4  11  21  33  52  75 101 132 167 205 245 292
#     4   9  19  34  51  74 103 133 165 200 243 295
#     4   9  17  31  49  66  89 126 165 197 236 287
#     4  10  19  29  44  67  94 127 170 208 237 277
#     4  10  21  35  50  72 101 129 161 204 248 291
#
# _framework density 16.041647000000001
#
# number of rings (size 3 to 8) (size 9 to 14) (size 15 to 20)
#    0.000    2.000    1.667    3.000    0.000    5.000 
#    0.000    1.667    0.000    0.500    0.000    0.000 
#    0.000    0.000    0.000    0.000    0.000    0.000 
#
# Total GULP energy -267296.607617 kJ/mol
# GULP energy per Si atom -5568.679325 kJ/mol
# Density = 1.600514 g / cm^3
# Si number density = 16.041647 Si / 1000 Ang^3
#
#
#
# Elastic Constant Matrix: (Units=GPa)
#
#
# Indices 1 2 3 4 5 6 
#
# 1 67.9144 29.7746 56.2794 0.0000 0.0000 0.0000
# 2 29.7746 57.7706 26.5374 0.0000 0.0000 0.0000
# 3 56.2794 26.5374 84.1079 0.0000 0.0000 0.0000
# 4 0.0000 0.0000 0.0000 10.4362 0.0000 0.0000
# 5 0.0000 0.0000 0.0000 0.0000 22.6199 0.0000
# 6 0.0000 0.0000 0.0000 0.0000 0.0000 21.0443
#
#
#
# Elastic Compliance Matrix: (Units=1/GPa)
#
#
# Indices 1 2 3 4 5 6 
#
# 1 0.036587 -0.008901 -0.021673 0.000000 0.000000 0.000000
# 2 -0.008901 0.022409 -0.001115 0.000000 0.000000 0.000000
# 3 -0.021673 -0.001115 0.026743 0.000000 0.000000 0.000000
# 4 0.000000 0.000000 0.000000 0.095820 0.000000 0.000000
# 5 0.000000 0.000000 0.000000 0.000000 0.044209 0.000000
# 6 0.000000 0.000000 0.000000 0.000000 0.000000 0.047519
#
#
# Mechanical properties :
#
#
# Convention : Reuss Voigt Hill
#
# Bulk Modulus (GPa) = 44.71816 48.33065 46.52441
# Shear Modulus (GPa) = 14.52991 17.30020 15.91506
#
# Velocity S-wave (km/s) = 3.01285 3.28755 3.15319
# Velocity P-wave (km/s) = 6.32771 6.67864 6.50554
#
# Compressibility (1/GPa) = 0.02236228
#
# Stress axis : x y z
#
# Youngs Moduli (GPa) = 27.33240 44.62430 37.39264
#
# Poissons Ratio (x) = 0.39720 0.81041
# Poissons Ratio (y) = 0.24328 0.04168
# Poissons Ratio (z) = 0.59237 0.04974
#
# Static dielectric constant tensor:
#      x y z
#    x 1.559710 0.000000 0.000000 
#    y 0.000000 1.575060 0.000000 
#    z 0.000000 0.000000 1.516970 
# 
# From -- ./inp_files/72576.got.cif
#   From: 2010.05.17/outbox.cif.g08.bks.cpg/sg74_37_cif.got.tgz:72576.got - 2010.06.03 17:57:02.
