data_PCOD9535431
_publ_section_title
;
Structure prediction by ZEFSAII (Michael W. Deem and Ramdas Pophale) SiO2 
 PCOD9535431
Probable space group: I M M A
;
_chemical_formula_sum "Si O2"
_cell_formula_units_Z 64
_cell_length_a 14.926849
_cell_length_b 8.914030
_cell_length_c 28.705390
_cell_angle_alpha 90.000000
_cell_angle_beta 90.000000
_cell_angle_gamma 90.000000
_cell_volume 3819.492685
_symmetry_space_group_name_H-M "I M M A"
_symmetry_group_IT_number 74
_symmetry_cell_setting 'orthorhombic'
loop_
_space_group_symop_operation_xyz
x,y,z
-x,1/2-y,z
x,-y,-z
-x,1/2+y,-z
-x,-y,-z
x,1/2+y,-z
-x,y,z
x,1/2-y,z
1/2+x,1/2+y,1/2+z
1/2-x,-y,1/2+z
1/2+x,1/2-y,1/2-z
1/2-x,y,1/2-z
1/2-x,1/2-y,1/2-z
1/2+x,y,1/2-z
1/2-x,1/2+y,1/2+z
1/2+x,-y,1/2+z
loop_
_atom_site_type_symbol
_atom_site_label
_atom_site_fract_x
_atom_site_fract_y
_atom_site_fract_z
Si Si1 0.648739 0.419580 0.269772
Si Si2 0.402024 0.068365 0.169647
Si Si3 0.284551 0.429517 0.639839
Si Si4 0.896131 0.569307 0.049608
O O1 0.618428 0.250000 0.280643
O O2 0.750000 0.410340 0.250000
O O3 0.598261 0.478456 0.224235
O O4 0.655737 0.515593 0.316342
O O5 0.500000 0.031164 0.149506
O O6 0.392181 0.250000 0.169568
O O7 0.314864 0.997995 0.145796
O O8 0.278414 0.250000 0.641016
O O9 0.332452 0.477078 0.592052
O O10 0.892858 0.750000 0.046380
O O11 0.000000 0.526782 0.058871
O O12 0.870120 0.500000 0.000000
#
# Coordination Sequence:
#
# PCOD9535431 Si02
#       4
#    16  16  16  16
#     4   8  15  28  44  63  90 124 160 193 223 262
#     4   9  18  32  48  67  95 131 167 198 226 265
#     4  10  19  30  47  72  99 124 153 194 240 282
#     4   9  19  35  52  71  95 121 151 190 237 287
#
# _framework density 16.756153000000001
#
# number of rings (size 3 to 8) (size 9 to 14) (size 15 to 20)
#    0.000    3.000    0.000    2.250    0.000    8.000 
#    0.000    0.000    0.000    0.750    0.000    0.000 
#    0.000    0.000    0.000    0.000    0.000    0.000 
#
# Total GULP energy -178176.092863 kJ/mol
# GULP energy per Si atom -5568.002902 kJ/mol
# Density = 1.671801 g / cm^3
# Si number density = 16.756153 Si / 1000 Ang^3
#
#
#
# Elastic Constant Matrix: (Units=GPa)
#
#
# Indices 1 2 3 4 5 6 
#
# 1 99.9297 30.3236 74.2020 0.0000 0.0000 0.0000
# 2 30.3236 32.0128 42.8383 0.0000 0.0000 0.0000
# 3 74.2020 42.8383 137.1825 0.0000 0.0000 0.0000
# 4 0.0000 0.0000 0.0000 28.4284 0.0000 0.0000
# 5 0.0000 0.0000 0.0000 0.0000 25.4222 0.0000
# 6 0.0000 0.0000 0.0000 0.0000 0.0000 8.8984
#
#
#
# Elastic Compliance Matrix: (Units=1/GPa)
#
#
# Indices 1 2 3 4 5 6 
#
# 1 0.017529 -0.006728 -0.007381 0.000000 0.000000 0.000000
# 2 -0.006728 0.056243 -0.013924 0.000000 0.000000 0.000000
# 3 -0.007381 -0.013924 0.015630 0.000000 0.000000 0.000000
# 4 0.000000 0.000000 0.000000 0.035176 0.000000 0.000000
# 5 0.000000 0.000000 0.000000 0.000000 0.039336 0.000000
# 6 0.000000 0.000000 0.000000 0.000000 0.000000 0.112380
#
#
# Mechanical properties :
#
#
# Convention : Reuss Voigt Hill
#
# Bulk Modulus (GPa) = 29.99668 62.65032 46.32350
# Shear Modulus (GPa) = 14.55729 20.66718 17.61223
#
# Velocity S-wave (km/s) = 2.95069 3.51580 3.24557
# Velocity P-wave (km/s) = 5.43595 7.34519 6.46147
#
# Compressibility (1/GPa) = 0.03333702
#
# Stress axis : x y z
#
# Youngs Moduli (GPa) = 57.04870 17.78003 63.98028
#
# Poissons Ratio (x) = 0.11962 0.47221
# Poissons Ratio (y) = 0.38380 0.89087
# Poissons Ratio (z) = 0.42105 0.24757
#
# Static dielectric constant tensor:
#      x y z
#    x 1.602030 0.000000 0.000000 
#    y 0.000000 1.568340 0.000000 
#    z 0.000000 0.000000 1.551200 
# 
# From -- ./inp_files/56397.got.cif
#   From: 2010.05.17/outbox.cif.g08.bks.cpg/sg74_29_cif.got.tgz:56397.got - 2010.06.03 17:57:02.
