data_PCOD9535968
_publ_section_title
;
Structure prediction by ZEFSAII (Michael W. Deem and Ramdas Pophale) SiO2 
 PCOD9535968
Probable space group: I M M A
;
_chemical_formula_sum "Si O2"
_cell_formula_units_Z 116
_cell_length_a 23.220216
_cell_length_b 7.531320
_cell_length_c 29.954627
_cell_angle_alpha 90.000000
_cell_angle_beta 90.000000
_cell_angle_gamma 90.000000
_cell_volume 5238.431536
_symmetry_space_group_name_H-M "I M M A"
_symmetry_group_IT_number 74
_symmetry_cell_setting 'orthorhombic'
loop_
_space_group_symop_operation_xyz
x,y,z
-x,1/2-y,z
x,-y,-z
-x,1/2+y,-z
-x,-y,-z
x,1/2+y,-z
-x,y,z
x,1/2-y,z
1/2+x,1/2+y,1/2+z
1/2-x,-y,1/2+z
1/2+x,1/2-y,1/2-z
1/2-x,y,1/2-z
1/2-x,1/2-y,1/2-z
1/2+x,y,1/2-z
1/2-x,1/2+y,1/2+z
1/2+x,-y,1/2+z
loop_
_atom_site_type_symbol
_atom_site_label
_atom_site_fract_x
_atom_site_fract_y
_atom_site_fract_z
Si Si1 0.663728 0.461089 0.354922
Si Si2 0.904771 0.543491 0.311116
Si Si3 0.500000 0.750000 0.945179
Si Si4 0.793364 0.458309 0.549882
Si Si5 0.063203 0.035339 0.785849
Si Si6 0.586440 0.965609 0.090188
Si Si7 0.336714 0.055428 0.449239
Si Si8 0.271473 0.965299 0.799563
O O1 0.672621 0.250000 0.361044
O O2 0.614565 0.481711 0.318120
O O3 0.646040 0.538954 0.403070
O O4 0.723939 0.530055 0.334946
O O5 0.921253 0.750000 0.311298
O O6 0.927261 0.466745 0.264599
O O7 0.926798 0.476849 0.358790
O O8 0.835539 0.530565 0.309061
O O9 0.450260 0.591511 0.941523
O O10 0.814685 0.500000 0.500000
O O11 0.779679 0.250000 0.552835
O O12 0.845654 0.498190 0.582532
O O13 0.732977 0.556414 0.555358
O O14 0.064612 0.250000 0.783975
O O15 0.000000 0.980208 0.801809
O O16 0.576942 0.750000 0.084529
O O17 0.362636 0.250000 0.446997
O O18 0.348055 0.000000 0.500000
O O19 0.273188 0.750000 0.800462
O O20 0.250000 0.017209 0.750000
#
# Coordination Sequence:
#
# PCOD9535968 Si02
#       8
#    16  16   4  16  16  16  16  16
#     4  10  21  37  55  83 120 152 184 239 287 338
#     4  10  21  37  57  81 115 151 194 244 290 349
#     4  12  26  40  66  82 108 160 206 250 320 352
#     4  10  20  36  62  87 118 151 187 240 299 358
#     4  10  22  38  57  80 109 155 196 236 285 336
#     4  10  24  42  59  86 116 150 202 259 304 360
#     4  10  20  34  58  89 120 150 187 231 288 354
#     4  10  19  32  52  81 118 150 185 230 283 348
#
# _framework density 22.144033
#
# number of rings (size 3 to 8) (size 9 to 14) (size 15 to 20)
#    0.000    1.931    1.379    2.690    3.862    2.207 
#    0.000    0.345    0.000    0.414    0.000    0.000 
#    0.000    0.000    0.000    0.000    0.000    0.000 
#
# Total GULP energy -323310.739443 kJ/mol
# GULP energy per Si atom -5574.323094 kJ/mol
# Density = 2.209363 g / cm^3
# Si number density = 22.144033 Si / 1000 Ang^3
#
#
#
# Elastic Constant Matrix: (Units=GPa)
#
#
# Indices 1 2 3 4 5 6 
#
# 1 53.5155 -11.6534 -5.0256 0.0000 0.0000 0.0000
# 2 -11.6534 64.2958 1.8336 0.0000 0.0000 0.0000
# 3 -5.0256 1.8336 93.1786 0.0000 0.0000 0.0000
# 4 0.0000 0.0000 0.0000 8.0843 0.0000 0.0000
# 5 0.0000 0.0000 0.0000 0.0000 -17.6079 0.0000
# 6 0.0000 0.0000 0.0000 0.0000 0.0000 -3.4204
#
#
#
# Elastic Compliance Matrix: (Units=1/GPa)
#
#
# Indices 1 2 3 4 5 6 
#
# 1 0.019544 0.003514 0.000985 0.000000 0.000000 0.000000
# 2 0.003514 0.016194 -0.000129 0.000000 0.000000 0.000000
# 3 0.000985 -0.000129 0.010788 0.000000 0.000000 0.000000
# 4 0.000000 0.000000 0.000000 0.123696 0.000000 0.000000
# 5 0.000000 0.000000 0.000000 0.000000 -0.056793 0.000000
# 6 0.000000 0.000000 0.000000 0.000000 0.000000 -0.292366
#
#
# Mechanical properties :
#
#
# Convention : Reuss Voigt Hill
#
# Bulk Modulus (GPa) = 18.09450 20.14434 19.11942
# Shear Modulus (GPa) = -29.54109 12.46690 -8.53710
#
# Velocity S-wave (km/s) = -3.65642 2.37532 -1.96561
# Velocity P-wave (km/s) = 3.10433 4.07916 1.87119
#
# Compressibility (1/GPa) = 0.05526541
#
# Stress axis : x y z
#
# Youngs Moduli (GPa) = 51.16683 61.75224 92.69780
#
# Poissons Ratio (x) = -0.21701 -0.09130
# Poissons Ratio (y) = -0.17981 0.01197
# Poissons Ratio (z) = -0.05040 0.00797
#
# Static dielectric constant tensor:
#      x y z
#    x 1.767120 0.000000 0.000000 
#    y 0.000000 1.795030 0.000000 
#    z 0.000000 0.000000 1.889100 
# 
# From -- ./inp_files/73794.got.cif
#   From: 2010.05.17/outbox.cif.g08.bks.cpg/sg74_37_cif.got.tgz:73794.got - 2010.06.03 17:57:02.
