data_PCOD9535055
_publ_section_title
;
Structure prediction by ZEFSAII (Michael W. Deem and Ramdas Pophale) SiO2 
 PCOD9535055
Probable space group: I M M A
;
_chemical_formula_sum "Si O2"
_cell_formula_units_Z 96
_cell_length_a 23.098528
_cell_length_b 18.089402
_cell_length_c 9.514961
_cell_angle_alpha 90.000000
_cell_angle_beta 90.000000
_cell_angle_gamma 90.000000
_cell_volume 3975.717589
_symmetry_space_group_name_H-M "I M M A"
_symmetry_group_IT_number 74
_symmetry_cell_setting 'orthorhombic'
loop_
_space_group_symop_operation_xyz
x,y,z
-x,1/2-y,z
x,-y,-z
-x,1/2+y,-z
-x,-y,-z
x,1/2+y,-z
-x,y,z
x,1/2-y,z
1/2+x,1/2+y,1/2+z
1/2-x,-y,1/2+z
1/2+x,1/2-y,1/2-z
1/2-x,y,1/2-z
1/2-x,1/2-y,1/2-z
1/2+x,y,1/2-z
1/2-x,1/2+y,1/2+z
1/2+x,-y,1/2+z
loop_
_atom_site_type_symbol
_atom_site_label
_atom_site_fract_x
_atom_site_fract_y
_atom_site_fract_z
Si Si1 0.653497 0.164100 0.756678
Si Si2 0.568536 0.941654 0.127590
Si Si3 0.937204 0.329475 0.996474
Si Si4 0.724771 0.424446 0.543796
Si Si5 0.878783 0.936543 0.812850
Si Si6 0.302300 0.833164 0.865385
O O1 0.673132 0.250000 0.780888
O O2 0.611586 0.128889 0.875612
O O3 0.610668 0.170071 0.622310
O O4 0.697212 0.101290 0.691853
O O5 0.500000 0.923657 0.138817
O O6 0.593425 0.987829 0.260832
O O7 0.574024 0.000000 0.000000
O O8 0.932432 0.250000 0.070110
O O9 0.928475 0.391404 0.110725
O O10 0.000000 0.335253 0.929322
O O11 0.758501 0.500000 0.500000
O O12 0.672908 0.435124 0.428634
O O13 0.768713 0.359078 0.504124
O O14 0.849966 0.890371 0.687309
O O15 0.324321 0.750000 0.873638
O O16 0.250000 0.834029 0.750000
#
# Coordination Sequence:
#
# PCOD9535055 Si02
#       6
#    16  16  16  16  16  16
#     4  10  20  37  61  89 124 161 203 258 320 379
#     4  11  24  40  58  82 115 163 215 255 303 374
#     4   9  17  29  52  86 119 153 196 250 309 363
#     4  10  18  33  59  95 123 154 198 249 318 369
#     4  10  19  34  54  82 119 159 198 251 302 357
#     4   9  18  32  54  84 118 155 193 235 291 368
#
# _framework density 24.146583
#
# number of rings (size 3 to 8) (size 9 to 14) (size 15 to 20)
#    0.000    2.167    1.667    2.000    0.000    5.667 
#    0.000    4.167    0.000    2.000    0.000    3.500 
#    0.000    0.000    0.000    0.000    0.000    0.000 
#
# Total GULP energy -267820.272608 kJ/mol
# GULP energy per Si atom -5579.589013 kJ/mol
# Density = 2.409162 g / cm^3
# Si number density = 24.146583 Si / 1000 Ang^3
#
#
#
# Elastic Constant Matrix: (Units=GPa)
#
#
# Indices 1 2 3 4 5 6 
#
# 1 98.0157 28.1777 15.9745 0.0000 0.0000 0.0000
# 2 28.1777 125.2800 21.6318 0.0000 0.0000 0.0000
# 3 15.9745 21.6318 72.3322 0.0000 0.0000 0.0000
# 4 0.0000 0.0000 0.0000 34.1924 0.0000 0.0000
# 5 0.0000 0.0000 0.0000 0.0000 31.6972 0.0000
# 6 0.0000 0.0000 0.0000 0.0000 0.0000 23.3699
#
#
#
# Elastic Compliance Matrix: (Units=1/GPa)
#
#
# Indices 1 2 3 4 5 6 
#
# 1 0.011126 -0.002191 -0.001802 0.000000 0.000000 0.000000
# 2 -0.002191 0.008848 -0.002162 0.000000 0.000000 0.000000
# 3 -0.001802 -0.002162 0.014870 0.000000 0.000000 0.000000
# 4 0.000000 0.000000 0.000000 0.029246 0.000000 0.000000
# 5 0.000000 0.000000 0.000000 0.000000 0.031549 0.000000
# 6 0.000000 0.000000 0.000000 0.000000 0.000000 0.042790
#
#
# Mechanical properties :
#
#
# Convention : Reuss Voigt Hill
#
# Bulk Modulus (GPa) = 44.37885 47.46621 45.92253
# Shear Modulus (GPa) = 31.59541 33.17483 32.38512
#
# Velocity S-wave (km/s) = 3.62122 3.71063 3.66620
# Velocity P-wave (km/s) = 5.99192 6.16916 6.08119
#
# Compressibility (1/GPa) = 0.02253326
#
# Stress axis : x y z
#
# Youngs Moduli (GPa) = 89.87889 113.01556 67.25092
#
# Poissons Ratio (x) = 0.24765 0.12118
# Poissons Ratio (y) = 0.19695 0.14541
# Poissons Ratio (z) = 0.16195 0.24437
#
# Static dielectric constant tensor:
#      x y z
#    x 1.948520 0.000000 0.000000 
#    y 0.000000 2.009830 0.000000 
#    z 0.000000 0.000000 1.955810 
# 
# From -- ./inp_files/25197.got.cif
#   From: 2010.05.17/outbox.cif.g08.bks.cpg/sg74_13_cif.got.tgz:25197.got - 2010.06.03 17:57:02.
