data_PCOD9535620
_publ_section_title
;
Structure prediction by ZEFSAII (Michael W. Deem and Ramdas Pophale) SiO2 
 PCOD9535620
Probable space group: I M M A
;
_chemical_formula_sum "Si O2"
_cell_formula_units_Z 80
_cell_length_a 27.969233
_cell_length_b 7.697598
_cell_length_c 19.222904
_cell_angle_alpha 90.000000
_cell_angle_beta 90.000000
_cell_angle_gamma 90.000000
_cell_volume 4138.612648
_symmetry_space_group_name_H-M "I M M A"
_symmetry_group_IT_number 74
_symmetry_cell_setting 'orthorhombic'
loop_
_space_group_symop_operation_xyz
x,y,z
-x,1/2-y,z
x,-y,-z
-x,1/2+y,-z
-x,-y,-z
x,1/2+y,-z
-x,y,z
x,1/2-y,z
1/2+x,1/2+y,1/2+z
1/2-x,-y,1/2+z
1/2+x,1/2-y,1/2-z
1/2-x,y,1/2-z
1/2-x,1/2-y,1/2-z
1/2+x,y,1/2-z
1/2-x,1/2+y,1/2+z
1/2+x,-y,1/2+z
loop_
_atom_site_type_symbol
_atom_site_label
_atom_site_fract_x
_atom_site_fract_y
_atom_site_fract_z
Si Si1 0.446917 0.959018 0.355221
Si Si2 0.849519 0.541083 0.078505
Si Si3 0.945310 0.458675 0.422504
Si Si4 0.796365 0.953403 0.212456
Si Si5 0.893623 0.957774 0.715097
O O1 0.500000 0.026550 0.370797
O O2 0.448354 0.750000 0.361748
O O3 0.403130 0.023549 0.402979
O O4 0.431306 0.000424 0.276270
O O5 0.850909 0.750000 0.085813
O O6 0.813708 0.472987 0.138107
O O7 0.836177 0.500000 0.000000
O O8 0.927616 0.500000 0.500000
O O9 0.947325 0.250000 0.416322
O O10 0.913262 0.522503 0.358748
O O11 0.000000 0.524849 0.416867
O O12 0.785687 0.750000 0.200034
O O13 0.750000 0.031019 0.250000
O O14 0.842892 0.966321 0.261401
O O15 0.888129 0.750000 0.712147
#
# Coordination Sequence:
#
# PCOD9535620 Si02
#       5
#    16  16  16  16  16
#     4   9  18  32  49  70  98 134 172 201 229 279
#     4   9  18  32  50  73  99 127 160 198 240 285
#     4   9  18  31  46  67  97 131 164 198 238 285
#     4   9  19  37  57  73  93 126 165 201 241 293
#     4  10  19  31  49  74 101 125 157 206 253 290
#
# _framework density 19.330148999999999
#
# number of rings (size 3 to 8) (size 9 to 14) (size 15 to 20)
#    0.000    2.800    0.000    2.400    0.000    6.800 
#    0.000    3.000    0.000    4.800    0.000    0.000 
#    0.000    0.000    0.000    0.000    0.000    0.000 
#
# Total GULP energy -223029.596801 kJ/mol
# GULP energy per Si atom -5575.739920 kJ/mol
# Density = 1.928615 g / cm^3
# Si number density = 19.330149 Si / 1000 Ang^3
#
#
#
# Elastic Constant Matrix: (Units=GPa)
#
#
# Indices 1 2 3 4 5 6 
#
# 1 119.3027 1.7398 76.2961 0.0000 0.0000 0.0000
# 2 1.7398 28.3607 -5.3248 0.0000 0.0000 0.0000
# 3 76.2961 -5.3248 162.7142 0.0000 0.0000 0.0000
# 4 0.0000 0.0000 0.0000 22.5017 0.0000 0.0000
# 5 0.0000 0.0000 0.0000 0.0000 -1.2452 0.0000
# 6 0.0000 0.0000 0.0000 0.0000 0.0000 -16.4125
#
#
#
# Elastic Compliance Matrix: (Units=1/GPa)
#
#
# Indices 1 2 3 4 5 6 
#
# 1 0.012064 -0.001813 -0.005716 0.000000 0.000000 0.000000
# 2 -0.001813 0.035751 0.002020 0.000000 0.000000 0.000000
# 3 -0.005716 0.002020 0.008892 0.000000 0.000000 0.000000
# 4 0.000000 0.000000 0.000000 0.044441 0.000000 0.000000
# 5 0.000000 0.000000 0.000000 0.000000 -0.803112 0.000000
# 6 0.000000 0.000000 0.000000 0.000000 0.000000 -0.060929
#
#
# Mechanical properties :
#
#
# Convention : Reuss Voigt Hill
#
# Bulk Modulus (GPa) = 21.88747 50.64442 36.26594
# Shear Modulus (GPa) = -6.78753 16.81324 5.01286
#
# Velocity S-wave (km/s) = -1.87590 2.95243 1.61211
# Velocity P-wave (km/s) = 2.57984 6.15459 4.71882
#
# Compressibility (1/GPa) = 0.04568825
#
# Stress axis : x y z
#
# Youngs Moduli (GPa) = 82.89102 27.97161 112.45913
#
# Poissons Ratio (x) = 0.05072 0.64283
# Poissons Ratio (y) = 0.15030 -0.22719
# Poissons Ratio (z) = 0.47381 -0.05651
#
# Static dielectric constant tensor:
#      x y z
#    x 1.675930 0.000000 0.000000 
#    y 0.000000 1.673180 0.000000 
#    z 0.000000 0.000000 1.673460 
# 
# From -- ./inp_files/39682.got.cif
#   From: 2010.05.17/outbox.cif.g08.bks.cpg/sg74_20_cif.got.tgz:39682.got - 2010.06.03 17:57:02.
