data_PCOD9535922
_publ_section_title
;
Structure prediction by ZEFSAII (Michael W. Deem and Ramdas Pophale) SiO2 
 PCOD9535922
Probable space group: I M M A
;
_chemical_formula_sum "Si O2"
_cell_formula_units_Z 88
_cell_length_a 8.441054
_cell_length_b 31.917186
_cell_length_c 18.156322
_cell_angle_alpha 90.000000
_cell_angle_beta 90.000000
_cell_angle_gamma 90.000000
_cell_volume 4891.579873
_symmetry_space_group_name_H-M "I M M A"
_symmetry_group_IT_number 74
_symmetry_cell_setting 'orthorhombic'
loop_
_space_group_symop_operation_xyz
x,y,z
-x,1/2-y,z
x,-y,-z
-x,1/2+y,-z
-x,-y,-z
x,1/2+y,-z
-x,y,z
x,1/2-y,z
1/2+x,1/2+y,1/2+z
1/2-x,-y,1/2+z
1/2+x,1/2-y,1/2-z
1/2-x,y,1/2-z
1/2-x,1/2-y,1/2-z
1/2+x,y,1/2-z
1/2-x,1/2+y,1/2+z
1/2+x,-y,1/2+z
loop_
_atom_site_type_symbol
_atom_site_label
_atom_site_fract_x
_atom_site_fract_y
_atom_site_fract_z
Si Si1 0.809449 0.750000 0.832553
Si Si2 0.689594 0.797428 0.333528
Si Si3 0.189757 0.416113 0.327081
Si Si4 0.307054 0.047082 0.014247
Si Si5 0.310786 0.663283 0.598840
Si Si6 0.186953 0.131775 0.555688
O O1 0.750000 0.750000 0.750000
O O2 0.758296 0.791508 0.874323
O O3 0.000000 0.750000 0.831369
O O4 0.500000 0.797038 0.333182
O O5 0.742286 0.750000 0.357866
O O6 0.750000 0.803026 0.250000
O O7 0.742489 0.836147 0.384655
O O8 0.250000 0.434388 0.250000
O O9 0.234695 0.440498 0.401908
O O10 0.267641 0.370753 0.339521
O O11 0.000000 0.412535 0.325377
O O12 0.500000 0.047244 0.010494
O O13 0.253540 0.083614 0.957188
O O14 0.251321 0.000000 0.000000
O O15 0.500000 0.662837 0.585649
O O16 0.221769 0.651257 0.524337
O O17 0.000000 0.129552 0.569688
#
# Coordination Sequence:
#
# PCOD9535922 Si02
#       6
#     8  16  16  16  16  16
#     4  10  22  34  46  66  95 132 169 206 248 292
#     4  10  21  37  57  80 109 145 183 226 274 326
#     4  10  19  32  52  76 100 131 172 213 262 314
#     4   8  16  33  55  77 104 138 175 217 267 323
#     4  10  20  34  50  71 101 136 174 213 253 300
#     4  10  20  34  55  82 107 137 176 217 265 320
#
# _framework density 17.990098
#
# number of rings (size 3 to 8) (size 9 to 14) (size 15 to 20)
#    0.000    2.364    0.000    3.818    1.273    4.000 
#    0.000    0.909    0.000   21.818    0.000    0.000 
#    0.000    0.000    0.000    0.000    0.000    0.000 
#
# Total GULP energy -245229.377208 kJ/mol
# GULP energy per Si atom -5573.394937 kJ/mol
# Density = 1.794915 g / cm^3
# Si number density = 17.990098 Si / 1000 Ang^3
#
#
#
# Elastic Constant Matrix: (Units=GPa)
#
#
# Indices 1 2 3 4 5 6 
#
# 1 24.1344 20.8848 9.9955 0.0000 0.0000 0.0000
# 2 20.8848 167.9900 64.9850 0.0000 0.0000 0.0000
# 3 9.9955 64.9850 80.9975 0.0001 0.0000 0.0001
# 4 0.0000 0.0000 0.0001 17.3650 0.0000 0.0000
# 5 0.0000 0.0000 0.0000 0.0000 33.9164 0.0000
# 6 0.0000 0.0000 0.0001 0.0000 0.0000 -67.1252
#
#
#
# Elastic Compliance Matrix: (Units=1/GPa)
#
#
# Indices 1 2 3 4 5 6 
#
# 1 0.046572 -0.005172 -0.001598 0.000000 0.000000 0.000000
# 2 -0.005172 0.009206 -0.006748 0.000000 0.000000 0.000000
# 3 -0.001598 -0.006748 0.017957 0.000000 0.000000 0.000000
# 4 0.000000 0.000000 0.000000 0.057587 0.000000 0.000000
# 5 0.000000 0.000000 0.000000 0.000000 0.029484 0.000000
# 6 0.000000 0.000000 0.000000 0.000000 0.000000 -0.014898
#
#
# Mechanical properties :
#
#
# Convention : Reuss Voigt Hill
#
# Bulk Modulus (GPa) = 21.41328 51.65030 36.53179
# Shear Modulus (GPa) = 26.52375 8.64834 17.58605
#
# Velocity S-wave (km/s) = 3.84390 2.19493 3.12996
# Velocity P-wave (km/s) = 5.62400 5.93265 5.78039
#
# Compressibility (1/GPa) = 0.04669999
#
# Stress axis : x y z
#
# Youngs Moduli (GPa) = 21.47220 108.62450 55.68827
#
# Poissons Ratio (x) = 0.56178 0.08898
# Poissons Ratio (y) = 0.11105 0.37578
# Poissons Ratio (z) = 0.03431 0.73298
#
# Static dielectric constant tensor:
#      x y z
#    x 1.619540 0.000000 0.000000 
#    y 0.000000 1.649410 0.000000 
#    z 0.000000 0.000000 1.592780 
# 
# From -- ./inp_files/40106.got.cif
#   From: 2010.05.17/outbox.cif.g08.bks.cpg/sg74_21_cif.got.tgz:40106.got - 2010.06.03 17:57:02.
