data_PCOD9535099
_publ_section_title
;
Structure prediction by ZEFSAII (Michael W. Deem and Ramdas Pophale) SiO2 
 PCOD9535099
Probable space group: I M M A
;
_chemical_formula_sum "Si O2"
_cell_formula_units_Z 48
_cell_length_a 16.849567
_cell_length_b 10.685396
_cell_length_c 14.129488
_cell_angle_alpha 90.000000
_cell_angle_beta 90.000000
_cell_angle_gamma 90.000000
_cell_volume 2543.933717
_symmetry_space_group_name_H-M "I M M A"
_symmetry_group_IT_number 74
_symmetry_cell_setting 'orthorhombic'
loop_
_space_group_symop_operation_xyz
x,y,z
-x,1/2-y,z
x,-y,-z
-x,1/2+y,-z
-x,-y,-z
x,1/2+y,-z
-x,y,z
x,1/2-y,z
1/2+x,1/2+y,1/2+z
1/2-x,-y,1/2+z
1/2+x,1/2-y,1/2-z
1/2-x,y,1/2-z
1/2-x,1/2-y,1/2-z
1/2+x,y,1/2-z
1/2-x,1/2+y,1/2+z
1/2+x,-y,1/2+z
loop_
_atom_site_type_symbol
_atom_site_label
_atom_site_fract_x
_atom_site_fract_y
_atom_site_fract_z
Si Si1 0.658796 0.981863 0.790202
Si Si2 0.308639 0.250000 0.517406
Si Si3 0.654709 0.750000 0.273969
Si Si4 0.204736 0.000000 0.500000
Si Si5 0.408059 0.250000 0.324546
O O1 0.750000 0.976227 0.750000
O O2 0.659336 0.968467 0.903296
O O3 0.613823 0.871645 0.736942
O O4 0.625252 0.119243 0.767105
O O5 0.358149 0.250000 0.613851
O O6 0.256898 0.376633 0.521157
O O7 0.356870 0.250000 0.420360
O O8 0.750000 0.750000 0.250000
O O9 0.500000 0.250000 0.348867
#
# Coordination Sequence:
#
# PCOD9535099 Si02
#       5
#    16   8   8   8   8
#     4  11  20  38  62  92 118 156 210 259 303 350
#     4  12  19  34  58  92 116 156 201 249 312 351
#     4  10  18  34  58  88 122 143 197 264 303 348
#     4  12  20  32  66  94 114 146 216 270 296 340
#     4  12  26  41  57  89 137 171 193 237 310 384
#
# _framework density 18.868414999999999
#
# number of rings (size 3 to 8) (size 9 to 14) (size 15 to 20)
#    0.000    0.667   10.000    1.500    0.000    0.000 
#    0.000    9.167    0.000    0.000    0.000    0.000 
#    0.000    0.000    0.000    0.000    0.000    0.000 
#
# Total GULP energy -134015.757516 kJ/mol
# GULP energy per Si atom -5583.989897 kJ/mol
# Density = 1.882547 g / cm^3
# Si number density = 18.868415 Si / 1000 Ang^3
#
#
#
# Elastic Constant Matrix: (Units=GPa)
#
#
# Indices 1 2 3 4 5 6 
#
# 1 14.7332 6.4980 -0.4932 0.0000 0.0000 0.0000
# 2 6.4980 98.1352 -16.4127 0.0000 0.0000 0.0000
# 3 -0.4932 -16.4127 137.3395 0.0000 0.0000 0.0000
# 4 0.0000 0.0000 0.0000 33.7343 0.0000 0.0000
# 5 0.0000 0.0000 0.0000 0.0000 3.7294 0.0000
# 6 0.0000 0.0000 0.0000 0.0000 0.0000 -108.6303
#
#
#
# Elastic Compliance Matrix: (Units=1/GPa)
#
#
# Indices 1 2 3 4 5 6 
#
# 1 0.069928 -0.004682 -0.000308 0.000000 0.000000 0.000000
# 2 -0.004682 0.010711 0.001263 0.000000 0.000000 0.000000
# 3 -0.000308 0.001263 0.007431 0.000000 0.000000 0.000000
# 4 0.000000 0.000000 0.000000 0.029643 0.000000 0.000000
# 5 0.000000 0.000000 0.000000 0.000000 0.268140 0.000000
# 6 0.000000 0.000000 0.000000 0.000000 0.000000 -0.009206
#
#
# Mechanical properties :
#
#
# Convention : Reuss Voigt Hill
#
# Bulk Modulus (GPa) = 12.40437 25.48802 18.94620
# Shear Modulus (GPa) = 12.16618 3.14107 7.65362
#
# Velocity S-wave (km/s) = 2.54203 1.29164 2.01621
# Velocity P-wave (km/s) = 3.89927 3.97015 3.93487
#
# Compressibility (1/GPa) = 0.08061675
#
# Stress axis : x y z
#
# Youngs Moduli (GPa) = 14.30033 93.35935 134.56990
#
# Poissons Ratio (x) = 0.43710 0.04150
# Poissons Ratio (y) = 0.06695 -0.16999
# Poissons Ratio (z) = 0.00441 -0.11794
#
# Static dielectric constant tensor:
#      x y z
#    x 1.650050 0.000000 0.000000 
#    y 0.000000 1.653280 0.000000 
#    z 0.000000 0.000000 1.656830 
# 
# From -- ./inp_files/33413.got.cif
#   From: 2010.05.17/outbox.cif.g08.bks.cpg/sg74_17_cif.got.tgz:33413.got - 2010.06.03 17:57:02.
