data_PCOD9535913
_publ_section_title
;
Structure prediction by ZEFSAII (Michael W. Deem and Ramdas Pophale) SiO2 
 PCOD9535913
Probable space group: I M M A
;
_chemical_formula_sum "Si O2"
_cell_formula_units_Z 96
_cell_length_a 14.726762
_cell_length_b 15.039978
_cell_length_c 23.466228
_cell_angle_alpha 90.000000
_cell_angle_beta 90.000000
_cell_angle_gamma 90.000000
_cell_volume 5197.538981
_symmetry_space_group_name_H-M "I M M A"
_symmetry_group_IT_number 74
_symmetry_cell_setting 'orthorhombic'
loop_
_space_group_symop_operation_xyz
x,y,z
-x,1/2-y,z
x,-y,-z
-x,1/2+y,-z
-x,-y,-z
x,1/2+y,-z
-x,y,z
x,1/2-y,z
1/2+x,1/2+y,1/2+z
1/2-x,-y,1/2+z
1/2+x,1/2-y,1/2-z
1/2-x,y,1/2-z
1/2-x,1/2-y,1/2-z
1/2+x,y,1/2-z
1/2-x,1/2+y,1/2+z
1/2+x,-y,1/2+z
loop_
_atom_site_type_symbol
_atom_site_label
_atom_site_fract_x
_atom_site_fract_y
_atom_site_fract_z
Si Si1 0.268185 0.547609 0.389035
Si Si2 0.108631 0.344474 0.223023
Si Si3 0.694064 0.153573 0.402453
Si Si4 0.099700 0.395908 0.984412
Si Si5 0.891563 0.537469 0.223037
Si Si6 0.606069 0.354649 0.835078
O O1 0.257071 0.442648 0.404378
O O2 0.322269 0.602898 0.437061
O O3 0.331990 0.551739 0.332905
O O4 0.172670 0.591639 0.375638
O O5 0.142606 0.250000 0.247616
O O6 0.138722 0.347984 0.156966
O O7 0.135169 0.439879 0.248368
O O8 0.000000 0.341917 0.225722
O O9 0.743381 0.250000 0.403291
O O10 0.628941 0.151120 0.457398
O O11 0.000000 0.365891 0.964402
O O12 0.092197 0.500000 0.000000
O O13 0.876447 0.610698 0.270953
O O14 0.000000 0.535515 0.209152
O O15 0.500000 0.371891 0.847076
O O16 0.622875 0.250000 0.839021
#
# Coordination Sequence:
#
# PCOD9535913 Si02
#       6
#    16  16  16  16  16  16
#     4  10  19  32  52  75 100 132 169 207 244 289
#     4   8  13  23  42  69 101 135 165 189 221 278
#     4   9  17  29  46  71 105 139 164 189 233 294
#     4   9  17  29  47  75 110 141 165 192 231 284
#     4   9  17  30  49  74 103 132 162 200 248 298
#     4  10  22  39  55  69  89 123 168 215 259 298
#
# _framework density 18.470279000000001
#
# number of rings (size 3 to 8) (size 9 to 14) (size 15 to 20)
#    0.000    2.833    0.000    1.500    0.000    7.000 
#    0.000    0.833    0.000   13.000    0.000    0.000 
#    0.000    0.000    0.000    0.000    0.000    0.000 
#
# Total GULP energy -267298.734138 kJ/mol
# GULP energy per Si atom -5568.723628 kJ/mol
# Density = 1.842824 g / cm^3
# Si number density = 18.470279 Si / 1000 Ang^3
#
#
#
# Elastic Constant Matrix: (Units=GPa)
#
#
# Indices 1 2 3 4 5 6 
#
# 1 54.9686 53.9504 25.7921 0.0000 0.0000 0.0000
# 2 53.9504 98.2888 25.8041 0.0000 0.0000 0.0000
# 3 25.7921 25.8041 31.8506 0.0000 0.0000 0.0000
# 4 0.0000 0.0000 0.0000 19.8455 0.0000 0.0000
# 5 0.0000 0.0000 0.0000 0.0000 23.1689 0.0000
# 6 0.0000 0.0000 0.0000 0.0000 0.0000 4.0366
#
#
#
# Elastic Compliance Matrix: (Units=1/GPa)
#
#
# Indices 1 2 3 4 5 6 
#
# 1 0.050092 -0.021397 -0.023229 0.000000 0.000000 0.000000
# 2 -0.021397 0.022063 -0.000547 0.000000 0.000000 0.000000
# 3 -0.023229 -0.000547 0.050650 0.000000 0.000000 0.000000
# 4 0.000000 0.000000 0.000000 0.050389 0.000000 0.000000
# 5 0.000000 0.000000 0.000000 0.000000 0.043161 0.000000
# 6 0.000000 0.000000 0.000000 0.000000 0.000000 0.247733
#
#
# Mechanical properties :
#
#
# Convention : Reuss Voigt Hill
#
# Bulk Modulus (GPa) = 30.80826 44.02236 37.41531
# Shear Modulus (GPa) = 8.84556 14.71429 11.77993
#
# Velocity S-wave (km/s) = 2.19077 2.82556 2.52817
# Velocity P-wave (km/s) = 4.80785 5.87630 5.36872
#
# Compressibility (1/GPa) = 0.03245882
#
# Stress axis : x y z
#
# Youngs Moduli (GPa) = 19.96311 45.32565 19.74322
#
# Poissons Ratio (x) = 0.96984 0.45861
# Poissons Ratio (y) = 0.42715 0.01080
# Poissons Ratio (z) = 0.46372 0.02480
#
# Static dielectric constant tensor:
#      x y z
#    x 1.649590 0.000000 0.000000 
#    y 0.000000 1.711760 0.000000 
#    z 0.000000 0.000000 1.620820 
# 
# From -- ./inp_files/51904.got.cif
#   From: 2010.05.17/outbox.cif.g08.bks.cpg/sg74_26_cif.got.tgz:51904.got - 2010.06.03 17:57:02.
