data_PCOD9535184
_publ_section_title
;
Structure prediction by ZEFSAII (Michael W. Deem and Ramdas Pophale) SiO2 
 PCOD9535184
Probable space group: I M M A
;
_chemical_formula_sum "Si O2"
_cell_formula_units_Z 88
_cell_length_a 11.509500
_cell_length_b 27.315697
_cell_length_c 13.065520
_cell_angle_alpha 90.000000
_cell_angle_beta 90.000000
_cell_angle_gamma 90.000000
_cell_volume 4107.669024
_symmetry_space_group_name_H-M "I M M A"
_symmetry_group_IT_number 74
_symmetry_cell_setting 'orthorhombic'
loop_
_space_group_symop_operation_xyz
x,y,z
-x,1/2-y,z
x,-y,-z
-x,1/2+y,-z
-x,-y,-z
x,1/2+y,-z
-x,y,z
x,1/2-y,z
1/2+x,1/2+y,1/2+z
1/2-x,-y,1/2+z
1/2+x,1/2-y,1/2-z
1/2-x,y,1/2-z
1/2-x,1/2-y,1/2-z
1/2+x,y,1/2-z
1/2-x,1/2+y,1/2+z
1/2+x,-y,1/2+z
loop_
_atom_site_type_symbol
_atom_site_label
_atom_site_fract_x
_atom_site_fract_y
_atom_site_fract_z
Si Si1 0.500000 0.425695 0.829397
Si Si2 0.235696 0.549121 0.867082
Si Si3 0.368082 0.146058 0.443527
Si Si4 0.199517 0.347617 0.637918
Si Si5 0.191660 0.250000 0.138845
Si Si6 0.500000 0.004283 0.339076
Si Si7 0.378215 0.250000 0.960887
Si Si8 0.000000 0.468494 0.389834
O O1 0.387876 0.393130 0.853087
O O2 0.500000 0.450359 0.715415
O O3 0.500000 0.472800 0.902583
O O4 0.250000 0.532838 0.750000
O O5 0.195075 0.605008 0.876560
O O6 0.120723 0.517093 0.896346
O O7 0.365922 0.546987 0.915810
O O8 0.500000 0.131083 0.463615
O O9 0.297617 0.147090 0.550597
O O10 0.369889 0.198290 0.385266
O O11 0.250000 0.340664 0.750000
O O12 0.133577 0.298261 0.606463
O O13 0.250000 0.250000 0.250000
O O14 0.285352 0.250000 0.048861
O O15 0.500000 0.038537 0.235758
O O16 0.500000 0.250000 0.016211
#
# Coordination Sequence:
#
# PCOD9535184 Si02
#       8
#     8  16  16  16   8   8   8   8
#     4  10  22  40  69  91 126 174 236 278 348 398
#     4  10  18  39  64  97 133 176 219 272 351 419
#     4  11  24  42  67 101 138 178 230 279 344 415
#     4  11  25  42  67  95 133 177 227 286 338 404
#     4  10  23  44  68 106 143 170 214 275 339 413
#     4   8  18  34  64  90 128 170 217 279 333 409
#     4  10  21  44  66  98 133 174 220 261 337 409
#     4   8  20  33  63  92 125 175 223 271 340 405
#
# _framework density 21.423342999999999
#
# number of rings (size 3 to 8) (size 9 to 14) (size 15 to 20)
#    0.545    1.455    1.818    1.091    3.818    1.455 
#    1.636    1.818    0.000    2.182    0.000    0.000 
#    0.000    0.000    0.000    0.000    0.000    0.000 
#
# Total GULP energy -245064.753848 kJ/mol
# GULP energy per Si atom -5569.653497 kJ/mol
# Density = 2.137458 g / cm^3
# Si number density = 21.423343 Si / 1000 Ang^3
#
#
#
# Elastic Constant Matrix: (Units=GPa)
#
#
# Indices 1 2 3 4 5 6 
#
# 1 187.4072 60.5177 25.7070 -0.0004 0.0000 0.0001
# 2 60.5177 125.5453 19.4321 -0.0002 0.0001 0.0002
# 3 25.7070 19.4321 73.2365 -0.0031 0.0002 0.0005
# 4 -0.0004 -0.0002 -0.0031 -78.9105 0.0007 0.0009
# 5 0.0000 0.0001 0.0002 0.0007 -12.7482 -0.0002
# 6 0.0001 0.0002 0.0005 0.0009 -0.0002 23.1373
#
#
#
# Elastic Compliance Matrix: (Units=1/GPa)
#
#
# Indices 1 2 3 4 5 6 
#
# 1 0.006475 -0.002888 -0.001507 0.000000 0.000000 0.000000
# 2 -0.002888 0.009595 -0.001532 0.000000 0.000000 0.000000
# 3 -0.001507 -0.001532 0.014590 -0.000001 0.000000 0.000000
# 4 0.000000 0.000000 -0.000001 -0.012673 -0.000001 0.000000
# 5 0.000000 0.000000 0.000000 -0.000001 -0.078442 -0.000001
# 6 0.000000 0.000000 0.000000 0.000000 -0.000001 0.043220
#
#
# Mechanical properties :
#
#
# Convention : Reuss Voigt Hill
#
# Bulk Modulus (GPa) = 53.17416 66.38918 59.78167
# Shear Modulus (GPa) = 5637.18451 4.99786 2821.09119
#
# Velocity S-wave (km/s) = 51.35212 1.52904 36.32753
# Velocity P-wave (km/s) = 59.50570 5.84583 42.27944
#
# Compressibility (1/GPa) = 0.01880613
#
# Stress axis : x y z
#
# Youngs Moduli (GPa) = 154.43360 104.22566 68.54146
#
# Poissons Ratio (x) = 0.30102 0.10326
# Poissons Ratio (y) = 0.44603 0.10500
# Poissons Ratio (z) = 0.23267 0.15967
#
# Static dielectric constant tensor:
#      x y z
#    x 1.824560 0.000000 0.000000 
#    y 0.000000 1.803670 0.000000 
#    z 0.000000 0.000000 1.805180 
# 
# From -- ./inp_files/19129.got.cif
#   From: 2010.05.17/outbox.cif.g08.bks.cpg/sg74_10_cif.got.tgz:19129.got - 2010.06.03 17:57:02.
