data_PCOD9535772
_publ_section_title
;
Structure prediction by ZEFSAII (Michael W. Deem and Ramdas Pophale) SiO2 
 PCOD9535772
Probable space group: I M M A
;
_chemical_formula_sum "Si O2"
_cell_formula_units_Z 56
_cell_length_a 10.364741
_cell_length_b 20.344230
_cell_length_c 10.235904
_cell_angle_alpha 90.000000
_cell_angle_beta 90.000000
_cell_angle_gamma 90.000000
_cell_volume 2158.370096
_symmetry_space_group_name_H-M "I M M A"
_symmetry_group_IT_number 74
_symmetry_cell_setting 'orthorhombic'
loop_
_space_group_symop_operation_xyz
x,y,z
-x,1/2-y,z
x,-y,-z
-x,1/2+y,-z
-x,-y,-z
x,1/2+y,-z
-x,y,z
x,1/2-y,z
1/2+x,1/2+y,1/2+z
1/2-x,-y,1/2+z
1/2+x,1/2-y,1/2-z
1/2-x,y,1/2-z
1/2-x,1/2-y,1/2-z
1/2+x,y,1/2-z
1/2-x,1/2+y,1/2+z
1/2+x,-y,1/2+z
loop_
_atom_site_type_symbol
_atom_site_label
_atom_site_fract_x
_atom_site_fract_y
_atom_site_fract_z
Si Si1 0.315733 0.750000 0.406321
Si Si2 0.000000 0.538037 0.190544
Si Si3 0.782204 0.102606 0.982800
Si Si4 0.000000 0.889580 0.457349
Si Si5 0.500000 0.250000 0.337869
Si Si6 0.500000 0.609306 0.697368
Si Si7 0.000000 0.250000 0.656965
O O1 0.269863 0.674076 0.414541
O O2 0.386991 0.750000 0.551430
O O3 0.386609 0.750000 0.264870
O O4 0.129603 0.554795 0.107383
O O5 0.000000 0.587618 0.308332
O O6 0.000000 0.464992 0.246503
O O7 0.635116 0.084843 0.015024
O O8 0.871107 0.109627 0.109030
O O9 0.000000 0.811360 0.439698
O O10 0.500000 0.315969 0.249633
#
# Coordination Sequence:
#
# PCOD9535772 Si02
#       7
#     8   8  16   8   4   8   4
#     4   9  15  28  45  67 104 139 168 184 229 284
#     4  11  20  33  49  69  96 137 170 203 237 302
#     4  10  19  32  46  70 102 139 167 200 236 291
#     4  12  22  28  48  78 107 131 169 206 244 275
#     4   7  14  30  54  74  82 116 167 214 228 295
#     4   9  19  37  56  67  95 132 169 201 253 301
#     4  11  18  28  44  74 112 142 163 196 230 287
#
# _framework density 25.945505000000001
#
# number of rings (size 3 to 8) (size 9 to 14) (size 15 to 20)
#    0.000    2.000    2.857    5.143    0.000    1.143 
#    0.000    2.857    0.000    0.000    0.000    4.000 
#    0.000    0.000    0.000    0.000    0.000    0.000 
#
# Total GULP energy -156038.776624 kJ/mol
# GULP energy per Si atom -5572.813451 kJ/mol
# Density = 2.588645 g / cm^3
# Si number density = 25.945505 Si / 1000 Ang^3
#
#
#
# Elastic Constant Matrix: (Units=GPa)
#
#
# Indices 1 2 3 4 5 6 
#
# 1 222.1287 35.6067 26.3306 0.0000 0.0000 0.0000
# 2 35.6067 194.4290 49.7517 -0.0002 0.0000 0.0000
# 3 26.3306 49.7517 63.6136 -0.0001 0.0000 0.0000
# 4 0.0000 -0.0002 -0.0001 -9.0133 0.0000 0.0000
# 5 0.0000 0.0000 0.0000 0.0000 0.5385 0.0000
# 6 0.0000 0.0000 0.0000 0.0000 0.0000 -4.4265
#
#
#
# Elastic Compliance Matrix: (Units=1/GPa)
#
#
# Indices 1 2 3 4 5 6 
#
# 1 0.004767 -0.000460 -0.001613 0.000000 0.000000 0.000000
# 2 -0.000460 0.006475 -0.004873 0.000000 0.000000 0.000000
# 3 -0.001613 -0.004873 0.020199 0.000000 0.000000 0.000000
# 4 0.000000 0.000000 0.000000 -0.110947 0.000003 0.000000
# 5 0.000000 0.000000 0.000000 0.000003 1.856974 -0.000009
# 6 0.000000 0.000000 0.000000 0.000000 -0.000009 -0.225911
#
#
# Mechanical properties :
#
#
# Convention : Reuss Voigt Hill
#
# Bulk Modulus (GPa) = 56.98914 78.17212 67.58063
# Shear Modulus (GPa) = 3.18208 21.98523 12.58365
#
# Velocity S-wave (km/s) = 1.10865 2.91411 2.20467
# Velocity P-wave (km/s) = 4.86327 6.44340 5.70828
#
# Compressibility (1/GPa) = 0.01754720
#
# Stress axis : x y z
#
# Youngs Moduli (GPa) = 209.78063 154.45151 49.50767
#
# Poissons Ratio (x) = 0.07108 0.07986
# Poissons Ratio (y) = 0.09654 0.24126
# Poissons Ratio (z) = 0.33841 0.75267
#
# Static dielectric constant tensor:
#      x y z
#    x 2.481110 0.000000 0.000000 
#    y 0.000000 2.016290 0.000000 
#    z 0.000000 0.000000 2.051160 
# 
# From -- ./inp_files/28621.got.cif
#   From: 2010.05.17/outbox.cif.g08.bks.cpg/sg74_15_cif.got.tgz:28621.got - 2010.06.03 17:57:02.
