data_PCOD9535548
_publ_section_title
;
Structure prediction by ZEFSAII (Michael W. Deem and Ramdas Pophale) SiO2 
 PCOD9535548
Probable space group: I M M A
;
_chemical_formula_sum "Si O2"
_cell_formula_units_Z 96
_cell_length_a 7.634341
_cell_length_b 18.973047
_cell_length_c 33.990475
_cell_angle_alpha 90.000000
_cell_angle_beta 90.000000
_cell_angle_gamma 90.000000
_cell_volume 4923.408496
_symmetry_space_group_name_H-M "I M M A"
_symmetry_group_IT_number 74
_symmetry_cell_setting 'orthorhombic'
loop_
_space_group_symop_operation_xyz
x,y,z
-x,1/2-y,z
x,-y,-z
-x,1/2+y,-z
-x,-y,-z
x,1/2+y,-z
-x,y,z
x,1/2-y,z
1/2+x,1/2+y,1/2+z
1/2-x,-y,1/2+z
1/2+x,1/2-y,1/2-z
1/2-x,y,1/2-z
1/2-x,1/2-y,1/2-z
1/2+x,y,1/2-z
1/2-x,1/2+y,1/2+z
1/2+x,-y,1/2+z
loop_
_atom_site_type_symbol
_atom_site_label
_atom_site_fract_x
_atom_site_fract_y
_atom_site_fract_z
Si Si1 0.213927 0.328579 0.664834
Si Si2 0.788806 0.404385 0.585531
Si Si3 0.706604 0.420683 0.498487
Si Si4 0.791369 0.670852 0.926304
Si Si5 0.288921 0.546129 0.871915
Si Si6 0.709763 0.529938 0.205360
O O1 0.274556 0.250000 0.674485
O O2 0.264614 0.351928 0.620574
O O3 0.273217 0.391550 0.693471
O O4 0.000000 0.327890 0.665718
O O5 0.726289 0.388428 0.541854
O O6 0.730074 0.482837 0.598949
O O7 0.000000 0.404527 0.584840
O O8 0.782678 0.500000 0.500000
O O9 0.500000 0.428306 0.490099
O O10 0.781227 0.371949 0.463981
O O11 0.720577 0.750000 0.922690
O O12 0.764770 0.621111 0.888678
O O13 0.000000 0.676957 0.932014
O O14 0.500000 0.544434 0.871908
O O15 0.227227 0.523734 0.828419
O O16 0.500000 0.531988 0.201687
O O17 0.750000 0.511645 0.250000
#
# Coordination Sequence:
#
# PCOD9535548 Si02
#       6
#    16  16  16  16  16  16
#     4   8  15  29  47  68  99 135 165 197 240 282
#     4   9  17  29  48  71  93 126 171 208 234 271
#     4  10  19  31  47  68  96 131 164 196 241 289
#     4  10  21  35  50  71  98 127 161 200 243 289
#     4   9  18  33  51  71  97 126 159 199 240 282
#     4   9  18  32  51  76 100 125 159 198 239 286
#
# _framework density 19.498688000000001
#
# number of rings (size 3 to 8) (size 9 to 14) (size 15 to 20)
#    0.000    2.833    1.667    2.000    0.000    3.000 
#    0.000    2.500    0.000    1.500    0.000    0.000 
#    0.000    0.000    0.000    0.000    0.000    0.000 
#
# Total GULP energy -267692.165211 kJ/mol
# GULP energy per Si atom -5576.920109 kJ/mol
# Density = 1.945431 g / cm^3
# Si number density = 19.498688 Si / 1000 Ang^3
#
#
#
# Elastic Constant Matrix: (Units=GPa)
#
#
# Indices 1 2 3 4 5 6 
#
# 1 35.2777 12.5097 -2.9395 0.0000 0.0000 0.0000
# 2 12.5097 143.3863 78.6401 0.0000 0.0000 0.0000
# 3 -2.9395 78.6401 144.1684 0.0000 0.0000 0.0000
# 4 0.0000 0.0000 0.0000 14.9332 0.0000 0.0000
# 5 0.0000 0.0000 0.0000 0.0000 22.1269 0.0000
# 6 0.0000 0.0000 0.0000 0.0000 0.0000 8.3116
#
#
#
# Elastic Compliance Matrix: (Units=1/GPa)
#
#
# Indices 1 2 3 4 5 6 
#
# 1 0.030088 -0.004226 0.002918 0.000000 0.000000 0.000000
# 2 -0.004226 0.010545 -0.005838 0.000000 0.000000 0.000000
# 3 0.002918 -0.005838 0.010180 0.000000 0.000000 0.000000
# 4 0.000000 0.000000 0.000000 0.066965 0.000000 0.000000
# 5 0.000000 0.000000 0.000000 0.000000 0.045194 0.000000
# 6 0.000000 0.000000 0.000000 0.000000 0.000000 0.120313
#
#
# Mechanical properties :
#
#
# Convention : Reuss Voigt Hill
#
# Bulk Modulus (GPa) = 27.38018 55.47255 41.42637
# Shear Modulus (GPa) = 16.14207 24.71583 20.42895
#
# Velocity S-wave (km/s) = 2.88037 3.56415 3.24034
# Velocity P-wave (km/s) = 5.01344 6.74156 5.94068
#
# Compressibility (1/GPa) = 0.03652277
#
# Stress axis : x y z
#
# Youngs Moduli (GPa) = 33.23565 94.83459 98.22882
#
# Poissons Ratio (x) = 0.40074 -0.28668
# Poissons Ratio (y) = 0.14044 0.57346
# Poissons Ratio (z) = -0.09700 0.55364
#
# Static dielectric constant tensor:
#      x y z
#    x 1.744220 0.000000 0.000000 
#    y 0.000000 1.689980 0.000000 
#    z 0.000000 0.000000 1.680590 
# 
# From -- ./inp_files/66110.got.cif
#   From: 2010.05.17/outbox.cif.g08.bks.cpg/sg74_34_cif.got.tgz:66110.got - 2010.06.03 17:57:02.
