data_PCOD9535359
_publ_section_title
;
Structure prediction by ZEFSAII (Michael W. Deem and Ramdas Pophale) SiO2 
 PCOD9535359
Probable space group: I M M A
;
_chemical_formula_sum "Si O2"
_cell_formula_units_Z 112
_cell_length_a 14.288399
_cell_length_b 17.869999
_cell_length_c 28.212611
_cell_angle_alpha 90.000000
_cell_angle_beta 90.000000
_cell_angle_gamma 90.000000
_cell_volume 7203.629672
_symmetry_space_group_name_H-M "I M M A"
_symmetry_group_IT_number 74
_symmetry_cell_setting 'orthorhombic'
loop_
_space_group_symop_operation_xyz
x,y,z
-x,1/2-y,z
x,-y,-z
-x,1/2+y,-z
-x,-y,-z
x,1/2+y,-z
-x,y,z
x,1/2-y,z
1/2+x,1/2+y,1/2+z
1/2-x,-y,1/2+z
1/2+x,1/2-y,1/2-z
1/2-x,y,1/2-z
1/2-x,1/2-y,1/2-z
1/2+x,y,1/2-z
1/2-x,1/2+y,1/2+z
1/2+x,-y,1/2+z
loop_
_atom_site_type_symbol
_atom_site_label
_atom_site_fract_x
_atom_site_fract_y
_atom_site_fract_z
Si Si1 0.888981 0.332957 0.277377
Si Si2 0.775848 0.520033 0.696453
Si Si3 0.608301 0.835137 0.568665
Si Si4 0.887606 0.468129 0.611695
Si Si5 0.111738 0.164623 0.538966
Si Si6 0.106294 0.111069 0.172669
Si Si7 0.281590 0.431591 0.036262
O O1 0.857827 0.250000 0.292100
O O2 0.833059 0.401747 0.299215
O O3 0.876831 0.342512 0.220722
O O4 0.000000 0.339639 0.287359
O O5 0.750000 0.494932 0.750000
O O6 0.838398 0.468295 0.662963
O O7 0.678820 0.543094 0.671933
O O8 0.500000 0.852537 0.556085
O O9 0.628467 0.750000 0.553444
O O10 0.614750 0.840300 0.625692
O O11 0.684012 0.893421 0.549863
O O12 0.869233 0.391733 0.582583
O O13 0.839258 0.534313 0.580644
O O14 0.000000 0.478988 0.614839
O O15 0.142128 0.250000 0.547308
O O16 0.158268 0.129444 0.492402
O O17 0.000000 0.164148 0.532401
O O18 0.000000 0.082873 0.175480
O O19 0.266653 0.500000 0.000000
#
# Coordination Sequence:
#
# PCOD9535359 Si02
#       7
#    16  16  16  16  16  16  16
#     4   9  17  28  41  60  88 121 157 193 229 272
#     4  10  19  30  46  67  92 125 160 199 238 284
#     4  10  19  30  45  65  90 123 163 200 231 269
#     4  10  19  33  51  74 102 128 157 197 243 290
#     4   9  18  33  54  77 100 127 157 190 238 301
#     4   9  17  29  43  59  83 119 161 195 223 265
#     4  10  19  32  50  72  98 127 157 195 243 290
#
# _framework density 15.547717
#
# number of rings (size 3 to 8) (size 9 to 14) (size 15 to 20)
#    0.000    2.429    1.429    1.714    0.000    7.429 
#    0.000    0.000    0.000    3.000    0.000    0.000 
#    0.000    0.000    0.000    0.000    0.000    0.000 
#
# Total GULP energy -312020.406221 kJ/mol
# GULP energy per Si atom -5571.792968 kJ/mol
# Density = 1.551233 g / cm^3
# Si number density = 15.547717 Si / 1000 Ang^3
#
#
#
# Elastic Constant Matrix: (Units=GPa)
#
#
# Indices 1 2 3 4 5 6 
#
# 1 66.9432 40.7929 30.6344 0.0000 0.0000 0.0000
# 2 40.7929 74.0299 31.6854 0.0000 0.0000 0.0000
# 3 30.6344 31.6854 63.9158 0.0000 0.0000 0.0000
# 4 0.0000 0.0000 0.0000 9.5294 0.0000 0.0000
# 5 0.0000 0.0000 0.0000 0.0000 24.1464 0.0000
# 6 0.0000 0.0000 0.0000 0.0000 0.0000 19.9963
#
#
#
# Elastic Compliance Matrix: (Units=1/GPa)
#
#
# Indices 1 2 3 4 5 6 
#
# 1 0.024380 -0.010704 -0.006379 0.000000 0.000000 0.000000
# 2 -0.010704 0.021846 -0.005699 0.000000 0.000000 0.000000
# 3 -0.006379 -0.005699 0.021528 0.000000 0.000000 0.000000
# 4 0.000000 0.000000 0.000000 0.104939 0.000000 0.000000
# 5 0.000000 0.000000 0.000000 0.000000 0.041414 0.000000
# 6 0.000000 0.000000 0.000000 0.000000 0.000000 0.050009
#
#
# Mechanical properties :
#
#
# Convention : Reuss Voigt Hill
#
# Bulk Modulus (GPa) = 45.06611 45.67936 45.37273
# Shear Modulus (GPa) = 15.76910 17.51949 16.64429
#
# Velocity S-wave (km/s) = 3.18817 3.36046 3.27544
# Velocity P-wave (km/s) = 6.52696 6.67089 6.59932
#
# Compressibility (1/GPa) = 0.02218962
#
# Stress axis : x y z
#
# Youngs Moduli (GPa) = 41.01793 45.77585 46.45065
#
# Poissons Ratio (x) = 0.48998 0.29629
# Poissons Ratio (y) = 0.43905 0.26474
# Poissons Ratio (z) = 0.26164 0.26089
#
# Static dielectric constant tensor:
#      x y z
#    x 1.538570 0.000000 0.000000 
#    y 0.000000 1.506990 0.000000 
#    z 0.000000 0.000000 1.523480 
# 
# From -- ./inp_files/67170.got.cif
#   From: 2010.05.17/outbox.cif.g08.bks.cpg/sg74_34_cif.got.tgz:67170.got - 2010.06.03 17:57:02.
