data_PCOD9535863
_publ_section_title
;
Structure prediction by ZEFSAII (Michael W. Deem and Ramdas Pophale) SiO2 
 PCOD9535863
Probable space group: I M M A
;
_chemical_formula_sum "Si O2"
_cell_formula_units_Z 72
_cell_length_a 10.710338
_cell_length_b 15.963859
_cell_length_c 22.893791
_cell_angle_alpha 90.000000
_cell_angle_beta 90.000000
_cell_angle_gamma 90.000000
_cell_volume 3914.342054
_symmetry_space_group_name_H-M "I M M A"
_symmetry_group_IT_number 74
_symmetry_cell_setting 'orthorhombic'
loop_
_space_group_symop_operation_xyz
x,y,z
-x,1/2-y,z
x,-y,-z
-x,1/2+y,-z
-x,-y,-z
x,1/2+y,-z
-x,y,z
x,1/2-y,z
1/2+x,1/2+y,1/2+z
1/2-x,-y,1/2+z
1/2+x,1/2-y,1/2-z
1/2-x,y,1/2-z
1/2-x,1/2-y,1/2-z
1/2+x,y,1/2-z
1/2-x,1/2+y,1/2+z
1/2+x,-y,1/2+z
loop_
_atom_site_type_symbol
_atom_site_label
_atom_site_fract_x
_atom_site_fract_y
_atom_site_fract_z
Si Si1 0.649976 0.152970 0.144292
Si Si2 0.642983 0.147498 0.011851
Si Si3 0.250000 0.455750 0.250000
Si Si4 0.358931 0.148735 0.575282
Si Si5 0.361782 0.618642 0.288431
O O1 0.500000 0.150802 0.150195
O O2 0.689779 0.250000 0.149249
O O3 0.710015 0.099142 0.195170
O O4 0.676778 0.123147 0.078240
O O5 0.500000 0.120881 0.998705
O O6 0.641279 0.250000 0.011388
O O7 0.747627 0.118359 0.966391
O O8 0.356300 0.520958 0.270312
O O9 0.500000 0.119975 0.559791
O O10 0.359683 0.250000 0.571348
O O11 0.335710 0.127000 0.642923
O O12 0.500000 0.652300 0.276993
O O13 0.250000 0.656385 0.250000
#
# Coordination Sequence:
#
# PCOD9535863 Si02
#       5
#    16  16   8  16  16
#     4   9  17  31  52  76 100 127 163 206 247 289
#     4   8  15  29  50  76 100 123 158 204 247 288
#     4  10  19  32  51  68 102 132 166 196 247 292
#     4   9  17  32  52  74 101 130 161 202 248 291
#     4   9  20  34  50  71  99 133 167 202 243 289
#
# _framework density 18.393895000000001
#
# number of rings (size 3 to 8) (size 9 to 14) (size 15 to 20)
#    0.667    2.444    0.000    2.333    0.000    1.333 
#    0.000    3.333    0.000   10.667    0.000    0.000 
#    0.000    0.000    0.000    0.000    0.000    0.000 
#
# Total GULP energy -200407.017653 kJ/mol
# GULP energy per Si atom -5566.861601 kJ/mol
# Density = 1.835203 g / cm^3
# Si number density = 18.393895 Si / 1000 Ang^3
#
#
#
# Elastic Constant Matrix: (Units=GPa)
#
#
# Indices 1 2 3 4 5 6 
#
# 1 132.2125 30.2011 117.1966 0.0000 0.0000 0.0000
# 2 30.2011 39.0807 30.6137 0.0000 0.0000 0.0000
# 3 117.1966 30.6137 138.2832 0.0000 0.0000 0.0000
# 4 0.0000 0.0000 0.0000 -28.9367 0.0000 0.0000
# 5 0.0000 0.0000 0.0000 0.0000 21.8763 0.0000
# 6 0.0000 0.0000 0.0000 0.0000 0.0000 -2.7349
#
#
#
# Elastic Compliance Matrix: (Units=1/GPa)
#
#
# Indices 1 2 3 4 5 6 
#
# 1 0.030935 -0.004075 -0.025315 0.000000 0.000000 0.000000
# 2 -0.004075 0.031493 -0.003518 0.000000 0.000000 0.000000
# 3 -0.025315 -0.003518 0.029465 0.000000 0.000000 0.000000
# 4 0.000000 0.000000 0.000000 -0.034558 0.000000 0.000000
# 5 0.000000 0.000000 0.000000 0.000000 0.045712 0.000000
# 6 0.000000 0.000000 0.000000 0.000000 0.000000 -0.365642
#
#
# Mechanical properties :
#
#
# Convention : Reuss Voigt Hill
#
# Bulk Modulus (GPa) = 38.34975 73.95549 56.15262
# Shear Modulus (GPa) = -26.58361 6.81192 -9.88584
#
# Velocity S-wave (km/s) = -3.80576 1.92650 -2.32082
# Velocity P-wave (km/s) = 1.25806 6.72624 4.83865
#
# Compressibility (1/GPa) = 0.02607579
#
# Stress axis : x y z
#
# Youngs Moduli (GPa) = 32.32634 31.75265 33.93823
#
# Poissons Ratio (x) = 0.12940 0.85915
# Poissons Ratio (y) = 0.13174 0.11940
# Poissons Ratio (z) = 0.81835 0.11171
#
# Static dielectric constant tensor:
#      x y z
#    x 1.641940 0.000000 0.000000 
#    y 0.000000 1.652480 0.000000 
#    z 0.000000 0.000000 1.601560 
# 
# From -- ./inp_files/41087.got.cif
#   From: 2010.05.17/outbox.cif.g08.bks.cpg/sg74_21_cif.got.tgz:41087.got - 2010.06.03 17:57:02.
