data_PCOD9536827
_publ_section_title
;
Structure prediction by ZEFSAII (Michael W. Deem and Ramdas Pophale) SiO2 
 PCOD9536827
Probable space group: I M M A
;
_chemical_formula_sum "Si O2"
_cell_formula_units_Z 104
_cell_length_a 8.565792
_cell_length_b 21.300245
_cell_length_c 30.682587
_cell_angle_alpha 90.000000
_cell_angle_beta 90.000000
_cell_angle_gamma 90.000000
_cell_volume 5598.144412
_symmetry_space_group_name_H-M "I M M A"
_symmetry_group_IT_number 74
_symmetry_cell_setting 'orthorhombic'
loop_
_space_group_symop_operation_xyz
x,y,z
-x,1/2-y,z
x,-y,-z
-x,1/2+y,-z
-x,-y,-z
x,1/2+y,-z
-x,y,z
x,1/2-y,z
1/2+x,1/2+y,1/2+z
1/2-x,-y,1/2+z
1/2+x,1/2-y,1/2-z
1/2-x,y,1/2-z
1/2-x,1/2-y,1/2-z
1/2+x,y,1/2-z
1/2-x,1/2+y,1/2+z
1/2+x,-y,1/2+z
loop_
_atom_site_type_symbol
_atom_site_label
_atom_site_fract_x
_atom_site_fract_y
_atom_site_fract_z
Si Si1 0.688558 0.061619 0.472364
Si Si2 0.309644 0.679035 0.470029
Si Si3 0.313851 0.526759 0.879318
Si Si4 0.311048 0.111501 0.200593
Si Si5 0.184709 0.112967 0.880941
Si Si6 0.687766 0.250000 0.200797
Si Si7 0.680465 0.825632 0.203751
O O1 0.500000 0.060691 0.472543
O O2 0.740933 0.125379 0.496196
O O3 0.745844 0.057333 0.423048
O O4 0.739723 0.000000 0.500000
O O5 0.500000 0.680282 0.470982
O O6 0.255223 0.750000 0.478515
O O7 0.263770 0.655166 0.421938
O O8 0.500000 0.532473 0.880429
O O9 0.258299 0.560471 0.834830
O O10 0.266562 0.454173 0.880579
O O11 0.500000 0.109802 0.202959
O O12 0.250000 0.102411 0.250000
O O13 0.263293 0.181480 0.183687
O O14 0.222529 0.147697 0.836210
O O15 0.000000 0.102456 0.885732
O O16 0.500000 0.250000 0.200548
O O17 0.750000 0.250000 0.250000
O O18 0.500000 0.845138 0.199894
O O19 0.686365 0.750000 0.202655
O O20 0.750000 0.846340 0.250000
#
# Coordination Sequence:
#
# PCOD9536827 Si02
#       7
#    16  16  16  16  16   8  16
#     4  10  19  37  60  82 109 145 188 229 276 335
#     4   9  18  34  58  84 109 139 181 231 279 332
#     4  11  23  37  54  82 115 148 186 226 279 337
#     4   9  19  35  56  80 108 141 179 224 271 329
#     4  11  21  36  58  82 109 147 191 235 283 334
#     4   8  14  30  54  76 100 136 176 218 266 318
#     4  10  21  37  56  81 114 150 188 234 283 335
#
# _framework density 18.577584000000002
#
# number of rings (size 3 to 8) (size 9 to 14) (size 15 to 20)
#    0.000    2.154    1.538    1.846    0.000    3.692 
#    1.385    1.538    0.000    1.846    0.000    0.000 
#    0.000    0.000    0.000    0.000    0.000    0.000 
#
# Total GULP energy -290068.351994 kJ/mol
# GULP energy per Si atom -5578.237538 kJ/mol
# Density = 1.853530 g / cm^3
# Si number density = 18.577584 Si / 1000 Ang^3
#
#
#
# Elastic Constant Matrix: (Units=GPa)
#
#
# Indices 1 2 3 4 5 6 
#
# 1 8.8671 19.0780 15.3780 0.0000 0.0000 0.0000
# 2 19.0780 124.4357 59.4536 0.0000 0.0000 0.0000
# 3 15.3780 59.4536 123.6790 0.0000 0.0000 0.0000
# 4 0.0000 0.0000 0.0000 71.1534 0.0000 0.0000
# 5 0.0000 0.0000 0.0000 0.0000 29.3432 0.0000
# 6 0.0000 0.0000 0.0000 0.0000 0.0000 21.6474
#
#
#
# Elastic Compliance Matrix: (Units=1/GPa)
#
#
# Indices 1 2 3 4 5 6 
#
# 1 0.180816 -0.022043 -0.011886 0.000000 0.000000 0.000000
# 2 -0.022043 0.013120 -0.003566 0.000000 0.000000 0.000000
# 3 -0.011886 -0.003566 0.011277 0.000000 0.000000 0.000000
# 4 0.000000 0.000000 0.000000 0.014054 0.000000 0.000000
# 5 0.000000 0.000000 0.000000 0.000000 0.034079 0.000000
# 6 0.000000 0.000000 0.000000 0.000000 0.000000 0.046195
#
#
# Mechanical properties :
#
#
# Convention : Reuss Voigt Hill
#
# Bulk Modulus (GPa) = 7.67912 49.42236 28.55074
# Shear Modulus (GPa) = 11.96345 35.30029 23.63187
#
# Velocity S-wave (km/s) = 2.54041 4.36381 3.57047
# Velocity P-wave (km/s) = 3.57036 7.21466 5.69205
#
# Compressibility (1/GPa) = 0.13022327
#
# Stress axis : x y z
#
# Youngs Moduli (GPa) = 5.53048 76.22187 88.67228
#
# Poissons Ratio (x) = 1.68017 1.05396
# Poissons Ratio (y) = 0.12191 0.31620
# Poissons Ratio (z) = 0.06574 0.27180
#
# Static dielectric constant tensor:
#      x y z
#    x 1.647850 0.000000 0.000000 
#    y 0.000000 1.657140 0.000000 
#    z 0.000000 0.000000 1.611250 
# 
# From -- ./inp_files/64507.got.cif
#   From: 2010.05.17/outbox.cif.g08.bks.cpg/sg74_33_cif.got.tgz:64507.got - 2010.06.03 17:57:02.
