data_PCOD9536113
_publ_section_title
;
Structure prediction by ZEFSAII (Michael W. Deem and Ramdas Pophale) SiO2 
 PCOD9536113
Probable space group: I M M A
;
_chemical_formula_sum "Si O2"
_cell_formula_units_Z 104
_cell_length_a 8.666813
_cell_length_b 29.268796
_cell_length_c 24.570056
_cell_angle_alpha 90.000000
_cell_angle_beta 90.000000
_cell_angle_gamma 90.000000
_cell_volume 6232.616859
_symmetry_space_group_name_H-M "I M M A"
_symmetry_group_IT_number 74
_symmetry_cell_setting 'orthorhombic'
loop_
_space_group_symop_operation_xyz
x,y,z
-x,1/2-y,z
x,-y,-z
-x,1/2+y,-z
-x,-y,-z
x,1/2+y,-z
-x,y,z
x,1/2-y,z
1/2+x,1/2+y,1/2+z
1/2-x,-y,1/2+z
1/2+x,1/2-y,1/2-z
1/2-x,y,1/2-z
1/2-x,1/2-y,1/2-z
1/2+x,y,1/2-z
1/2-x,1/2+y,1/2+z
1/2+x,-y,1/2+z
loop_
_atom_site_type_symbol
_atom_site_label
_atom_site_fract_x
_atom_site_fract_y
_atom_site_fract_z
Si Si1 0.684696 0.250000 0.310974
Si Si2 0.685711 0.875203 0.311448
Si Si3 0.316223 0.337527 0.125285
Si Si4 0.814637 0.024451 0.811082
Si Si5 0.315174 0.696865 0.103652
Si Si6 0.813934 0.424095 0.188280
Si Si7 0.315886 0.804003 0.514978
O O1 0.500000 0.250000 0.310138
O O2 0.750000 0.250000 0.250000
O O3 0.743926 0.205168 0.342152
O O4 0.500000 0.872501 0.309680
O O5 0.750000 0.871044 0.250000
O O6 0.731233 0.925927 0.333809
O O7 0.751481 0.836060 0.349892
O O8 0.500000 0.335413 0.129533
O O9 0.254266 0.383863 0.152064
O O10 0.263728 0.331987 0.062954
O O11 0.750000 0.024400 0.750000
O O12 0.000000 0.024452 0.808973
O O13 0.769550 0.974792 0.833894
O O14 0.500000 0.693883 0.101170
O O15 0.273403 0.750000 0.114261
O O16 0.244960 0.684279 0.044949
O O17 0.750000 0.420020 0.250000
O O18 0.000000 0.420659 0.189952
O O19 0.500000 0.809684 0.517604
O O20 0.281312 0.750000 0.523815
#
# Coordination Sequence:
#
# PCOD9536113 Si02
#       7
#     8  16  16  16  16  16  16
#     4  12  24  38  52  72 102 138 175 216 267 318
#     4  10  19  33  54  81 110 140 174 210 257 309
#     4  12  23  35  52  75 103 136 173 216 263 311
#     4   8  16  30  50  74 101 134 171 212 254 305
#     4  10  21  36  54  78 108 140 174 212 255 305
#     4  10  19  33  51  74 104 136 173 215 262 312
#     4  10  20  36  57  77  99 132 176 218 258 307
#
# _framework density 16.686409000000001
#
# number of rings (size 3 to 8) (size 9 to 14) (size 15 to 20)
#    0.000    1.846    0.769    4.385    0.000    3.077 
#    0.000    0.000    0.000    0.923    0.000    6.462 
#    0.000    0.000    0.000    0.000    0.000    0.000 
#
# Total GULP energy -290106.957432 kJ/mol
# GULP energy per Si atom -5578.979951 kJ/mol
# Density = 1.664843 g / cm^3
# Si number density = 16.686409 Si / 1000 Ang^3
#
#
#
# Elastic Constant Matrix: (Units=GPa)
#
#
# Indices 1 2 3 4 5 6 
#
# 1 83.9655 53.2765 44.7089 0.0000 0.0000 0.0000
# 2 53.2765 145.6737 81.6899 0.0000 0.0000 0.0000
# 3 44.7089 81.6899 99.8694 0.0000 0.0000 0.0000
# 4 0.0000 0.0000 0.0000 -0.4060 0.0000 0.0000
# 5 0.0000 0.0000 0.0000 0.0000 31.2732 0.0000
# 6 0.0000 0.0000 0.0000 0.0000 0.0000 18.5090
#
#
#
# Elastic Compliance Matrix: (Units=1/GPa)
#
#
# Indices 1 2 3 4 5 6 
#
# 1 0.016553 -0.003507 -0.004542 0.000000 0.000000 0.000000
# 2 -0.003507 0.013425 -0.009411 -0.000001 0.000000 0.000000
# 3 -0.004542 -0.009411 0.019744 0.000002 0.000000 0.000000
# 4 0.000000 -0.000001 0.000002 -2.462809 0.000000 0.000000
# 5 0.000000 0.000000 0.000000 0.000000 0.031976 0.000000
# 6 0.000000 0.000000 0.000000 0.000000 0.000000 0.054028
#
#
# Mechanical properties :
#
#
# Convention : Reuss Voigt Hill
#
# Bulk Modulus (GPa) = 67.55606 76.53991 72.04798
# Shear Modulus (GPa) = -2.18605 19.86412 8.83903
#
# Velocity S-wave (km/s) = -1.14583 3.45401 2.30405
# Velocity P-wave (km/s) = 6.23081 7.86614 7.09574
#
# Compressibility (1/GPa) = 0.01480252
#
# Stress axis : x y z
#
# Youngs Moduli (GPa) = 60.41114 74.48974 50.64772
#
# Poissons Ratio (x) = 0.26123 0.23004
# Poissons Ratio (y) = 0.21186 0.47664
# Poissons Ratio (z) = 0.27438 0.70102
#
# Static dielectric constant tensor:
#      x y z
#    x 1.557100 0.000000 0.000000 
#    y 0.000000 1.586980 0.000000 
#    z 0.000000 0.000000 1.524060 
# 
# From -- ./inp_files/57605.got.cif
#   From: 2010.05.17/outbox.cif.g08.bks.cpg/sg74_29_cif.got.tgz:57605.got - 2010.06.03 17:57:02.
