data_PCOD9536740
_publ_section_title
;
Structure prediction by ZEFSAII (Michael W. Deem and Ramdas Pophale) SiO2 
 PCOD9536740
Probable space group: I M M A
;
_chemical_formula_sum "Si O2"
_cell_formula_units_Z 104
_cell_length_a 34.095764
_cell_length_b 7.850741
_cell_length_c 20.606396
_cell_angle_alpha 90.000000
_cell_angle_beta 90.000000
_cell_angle_gamma 90.000000
_cell_volume 5515.858517
_symmetry_space_group_name_H-M "I M M A"
_symmetry_group_IT_number 74
_symmetry_cell_setting 'orthorhombic'
loop_
_space_group_symop_operation_xyz
x,y,z
-x,1/2-y,z
x,-y,-z
-x,1/2+y,-z
-x,-y,-z
x,1/2+y,-z
-x,y,z
x,1/2-y,z
1/2+x,1/2+y,1/2+z
1/2-x,-y,1/2+z
1/2+x,1/2-y,1/2-z
1/2-x,y,1/2-z
1/2-x,1/2-y,1/2-z
1/2+x,y,1/2-z
1/2-x,1/2+y,1/2+z
1/2+x,-y,1/2+z
loop_
_atom_site_type_symbol
_atom_site_label
_atom_site_fract_x
_atom_site_fract_y
_atom_site_fract_z
Si Si1 0.765580 0.544756 0.680066
Si Si2 0.296987 0.455796 0.425559
Si Si3 0.500000 0.544938 0.925083
Si Si4 0.456796 0.958132 0.682756
Si Si5 0.933513 0.455824 0.328916
Si Si6 0.350807 0.446705 0.787371
Si Si7 0.873124 0.051993 0.145198
O O1 0.763417 0.750000 0.680504
O O2 0.750000 0.483302 0.750000
O O3 0.737413 0.482797 0.622555
O O4 0.810993 0.496192 0.676873
O O5 0.290160 0.500000 0.500000
O O6 0.297970 0.250000 0.419744
O O7 0.339153 0.522540 0.400091
O O8 0.500000 0.750000 0.919738
O O9 0.538295 0.483578 0.886095
O O10 0.500000 0.500000 0.000000
O O11 0.500000 0.013946 0.660366
O O12 0.456270 0.750000 0.680330
O O13 0.451180 0.004276 0.758581
O O14 0.417336 0.020869 0.646966
O O15 0.932257 0.250000 0.329963
O O16 0.889236 0.520644 0.330170
O O17 0.349025 0.250000 0.769087
O O18 0.357090 0.545114 0.719357
O O19 0.877374 0.250000 0.127039
#
# Coordination Sequence:
#
# PCOD9536740 Si02
#       7
#    16  16   8  16  16  16  16
#     4  10  19  36  58  77 102 138 180 218 263 322
#     4  10  21  36  55  78 104 140 176 216 266 316
#     4  10  20  34  54  76 100 138 183 222 263 316
#     4   8  12  22  47  77  98 120 164 217 248 284
#     4   9  17  32  51  72 100 136 175 210 257 316
#     4  11  21  31  50  81 109 132 166 219 273 307
#     4   9  17  32  52  74 104 141 176 209 254 314
#
# _framework density 18.854724999999998
#
# number of rings (size 3 to 8) (size 9 to 14) (size 15 to 20)
#    0.000    2.462    2.308    2.308    0.000    2.154 
#    0.000    0.769    0.000    0.462    0.000    0.000 
#    0.000    0.000    0.000    0.000    0.000    0.000 
#
# Total GULP energy -289953.851955 kJ/mol
# GULP energy per Si atom -5576.035615 kJ/mol
# Density = 1.881181 g / cm^3
# Si number density = 18.854725 Si / 1000 Ang^3
#
#
#
# Elastic Constant Matrix: (Units=GPa)
#
#
# Indices 1 2 3 4 5 6 
#
# 1 196.3556 4.8589 74.0200 0.0000 0.0000 0.0000
# 2 4.8589 22.0571 -0.1231 0.0000 0.0000 0.0000
# 3 74.0200 -0.1231 90.6905 0.0000 0.0000 0.0000
# 4 0.0000 0.0000 0.0000 17.3290 0.0000 0.0000
# 5 0.0000 0.0000 0.0000 0.0000 25.8918 0.0000
# 6 0.0000 0.0000 0.0000 0.0000 0.0000 -18.1825
#
#
#
# Elastic Compliance Matrix: (Units=1/GPa)
#
#
# Indices 1 2 3 4 5 6 
#
# 1 0.007417 -0.001668 -0.006056 0.000000 0.000000 0.000000
# 2 -0.001668 0.045712 0.001423 0.000000 0.000000 0.000000
# 3 -0.006056 0.001423 0.015971 0.000000 0.000000 0.000000
# 4 0.000000 0.000000 0.000000 0.057707 0.000000 0.000000
# 5 0.000000 0.000000 0.000000 0.000000 0.038622 0.000000
# 6 0.000000 0.000000 0.000000 0.000000 0.000000 -0.054998
#
#
# Mechanical properties :
#
#
# Convention : Reuss Voigt Hill
#
# Bulk Modulus (GPa) = 17.69927 51.84610 34.77269
# Shear Modulus (GPa) = 35.24477 20.36417 27.80447
#
# Velocity S-wave (km/s) = 4.32821 3.28999 3.84431
# Velocity P-wave (km/s) = 5.86391 6.47992 6.17960
#
# Compressibility (1/GPa) = 0.05649950
#
# Stress axis : x y z
#
# Youngs Moduli (GPa) = 134.82674 21.87603 62.61310
#
# Poissons Ratio (x) = 0.03648 0.37917
# Poissons Ratio (y) = 0.22484 -0.08911
# Poissons Ratio (z) = 0.81649 -0.03113
#
# Static dielectric constant tensor:
#      x y z
#    x 1.689450 0.000000 0.000000 
#    y 0.000000 1.692170 0.000000 
#    z 0.000000 0.000000 1.617750 
# 
# From -- ./inp_files/62650.got.cif
#   From: 2010.05.17/outbox.cif.g08.bks.cpg/sg74_32_cif.got.tgz:62650.got - 2010.06.03 17:57:02.
