data_PCOD9536709
_publ_section_title
;
Structure prediction by ZEFSAII (Michael W. Deem and Ramdas Pophale) SiO2 
 PCOD9536709
Probable space group: I M M A
;
_chemical_formula_sum "Si O2"
_cell_formula_units_Z 116
_cell_length_a 17.932202
_cell_length_b 16.557479
_cell_length_c 17.475746
_cell_angle_alpha 90.000000
_cell_angle_beta 90.000000
_cell_angle_gamma 90.000000
_cell_volume 5188.759711
_symmetry_space_group_name_H-M "I M M A"
_symmetry_group_IT_number 74
_symmetry_cell_setting 'orthorhombic'
loop_
_space_group_symop_operation_xyz
x,y,z
-x,1/2-y,z
x,-y,-z
-x,1/2+y,-z
-x,-y,-z
x,1/2+y,-z
-x,y,z
x,1/2-y,z
1/2+x,1/2+y,1/2+z
1/2-x,-y,1/2+z
1/2+x,1/2-y,1/2-z
1/2-x,y,1/2-z
1/2-x,1/2-y,1/2-z
1/2+x,y,1/2-z
1/2-x,1/2+y,1/2+z
1/2+x,-y,1/2+z
loop_
_atom_site_type_symbol
_atom_site_label
_atom_site_fract_x
_atom_site_fract_y
_atom_site_fract_z
Si Si1 0.087044 0.595038 0.021310
Si Si2 0.913813 0.342250 0.415714
Si Si3 0.088511 0.573446 0.190501
Si Si4 0.304430 0.470656 0.075465
Si Si5 0.000000 0.750000 0.413669
Si Si6 0.808643 0.338594 0.111769
Si Si7 0.413591 0.390107 0.262619
Si Si8 0.916469 0.099203 0.644161
O O1 0.118965 0.600217 0.108285
O O2 0.000000 0.623307 0.017335
O O3 0.085172 0.500000 0.000000
O O4 0.138066 0.640539 0.960034
O O5 0.890710 0.250000 0.425673
O O6 0.867247 0.410035 0.457422
O O7 0.908473 0.367273 0.326227
O O8 0.000000 0.344838 0.438329
O O9 0.107830 0.482317 0.216294
O O10 0.100009 0.624268 0.267598
O O11 0.000000 0.571904 0.176147
O O12 0.250576 0.410971 0.121163
O O13 0.349909 0.540597 0.118247
O O14 0.261748 0.500000 0.000000
O O15 0.935514 0.821529 0.403884
O O16 0.774464 0.250000 0.101050
O O17 0.859654 0.337775 0.186339
O O18 0.500000 0.378999 0.285060
O O19 0.000000 0.055298 0.646649
#
# Coordination Sequence:
#
# PCOD9536709 Si02
#       8
#    16  16  16  16   4  16  16  16
#     4  10  19  35  61  92 126 167 222 269 309 369
#     4  10  21  40  65 100 128 154 205 268 325 386
#     4   9  16  32  64  96 124 159 205 262 320 381
#     4  12  26  43  63  85 125 179 214 256 318 391
#     4   8  20  40  74 108 126 140 198 288 334 382
#     4  12  26  42  56  89 136 182 222 258 310 376
#     4  10  19  36  68  97 129 164 209 265 323 374
#     4   9  19  42  68  99 127 149 203 268 329 392
#
# _framework density 22.356016
#
# number of rings (size 3 to 8) (size 9 to 14) (size 15 to 20)
#    0.414    1.379    2.759    2.069    0.000    3.310 
#    3.724    1.379    0.000    0.000    0.000    1.931 
#    0.000    0.000    0.000    0.000    0.000    0.000 
#
# Total GULP energy -323222.026128 kJ/mol
# GULP energy per Si atom -5572.793554 kJ/mol
# Density = 2.230513 g / cm^3
# Si number density = 22.356016 Si / 1000 Ang^3
#
#
#
# Elastic Constant Matrix: (Units=GPa)
#
#
# Indices 1 2 3 4 5 6 
#
# 1 82.8714 30.8931 24.0865 0.0000 0.0000 0.0000
# 2 30.8931 77.0433 13.0433 0.0000 0.0000 0.0000
# 3 24.0865 13.0433 98.1516 0.0000 0.0000 0.0000
# 4 0.0000 0.0000 0.0000 -6.0964 0.0000 0.0000
# 5 0.0000 0.0000 0.0000 0.0000 16.4893 0.0000
# 6 0.0000 0.0000 0.0000 0.0000 0.0000 33.9946
#
#
#
# Elastic Compliance Matrix: (Units=1/GPa)
#
#
# Indices 1 2 3 4 5 6 
#
# 1 0.014975 -0.005506 -0.002943 0.000000 0.000000 0.000000
# 2 -0.005506 0.015303 -0.000682 0.000000 0.000000 0.000000
# 3 -0.002943 -0.000682 0.011001 0.000000 0.000000 0.000000
# 4 0.000000 0.000000 0.000000 -0.164031 0.000000 0.000000
# 5 0.000000 0.000000 0.000000 0.000000 0.060645 0.000000
# 6 0.000000 0.000000 0.000000 0.000000 0.000000 0.029416
#
#
# Mechanical properties :
#
#
# Convention : Reuss Voigt Hill
#
# Bulk Modulus (GPa) = 43.44877 43.79023 43.61950
# Shear Modulus (GPa) = -740.26333 21.54706 -359.35813
#
# Velocity S-wave (km/s) = -18.21658 3.10791 -12.69222
# Velocity P-wave (km/s) = 20.56651 5.70166 13.97269
#
# Compressibility (1/GPa) = 0.02301561
#
# Stress axis : x y z
#
# Youngs Moduli (GPa) = 66.77777 65.34558 90.89885
#
# Poissons Ratio (x) = 0.35982 0.26753
# Poissons Ratio (y) = 0.36771 0.06202
# Poissons Ratio (z) = 0.19654 0.04459
#
# Static dielectric constant tensor:
#      x y z
#    x 1.843120 0.000000 0.000000 
#    y 0.000000 1.941950 0.000000 
#    z 0.000000 0.000000 1.883630 
# 
# From -- ./inp_files/44264.got.cif
#   From: 2010.05.17/outbox.cif.g08.bks.cpg/sg74_23_cif.got.tgz:44264.got - 2010.06.03 17:57:02.
