data_PCOD9536649
_publ_section_title
;
Structure prediction by ZEFSAII (Michael W. Deem and Ramdas Pophale) SiO2 
 PCOD9536649
Probable space group: I M M A
;
_chemical_formula_sum "Si O2"
_cell_formula_units_Z 88
_cell_length_a 20.253726
_cell_length_b 22.615526
_cell_length_c 10.993232
_cell_angle_alpha 90.000000
_cell_angle_beta 90.000000
_cell_angle_gamma 90.000000
_cell_volume 5035.435263
_symmetry_space_group_name_H-M "I M M A"
_symmetry_group_IT_number 74
_symmetry_cell_setting 'orthorhombic'
loop_
_space_group_symop_operation_xyz
x,y,z
-x,1/2-y,z
x,-y,-z
-x,1/2+y,-z
-x,-y,-z
x,1/2+y,-z
-x,y,z
x,1/2-y,z
1/2+x,1/2+y,1/2+z
1/2-x,-y,1/2+z
1/2+x,1/2-y,1/2-z
1/2-x,y,1/2-z
1/2-x,1/2-y,1/2-z
1/2+x,y,1/2-z
1/2-x,1/2+y,1/2+z
1/2+x,-y,1/2+z
loop_
_atom_site_type_symbol
_atom_site_label
_atom_site_fract_x
_atom_site_fract_y
_atom_site_fract_z
Si Si1 0.000000 0.905296 0.480823
Si Si2 0.608958 0.684907 0.101634
Si Si3 0.819685 0.636664 0.179271
Si Si4 0.246084 0.317056 0.455695
Si Si5 0.863360 0.998165 0.146903
Si Si6 0.500000 0.013423 0.210542
Si Si7 0.250000 0.085270 0.250000
O O1 0.063254 0.864982 0.454817
O O2 0.000000 0.957404 0.380902
O O3 0.000000 0.931775 0.616384
O O4 0.579463 0.750000 0.089523
O O5 0.626443 0.671240 0.241610
O O6 0.678720 0.685001 0.032491
O O7 0.750000 0.640532 0.250000
O O8 0.840965 0.568574 0.176361
O O9 0.804775 0.663869 0.047302
O O10 0.257831 0.250000 0.408479
O O11 0.235943 0.369236 0.359419
O O12 0.809932 0.043323 0.205220
O O13 0.934458 0.011293 0.206865
O O14 0.865241 0.000000 0.000000
#
# Coordination Sequence:
#
# PCOD9536649 Si02
#       7
#     8  16  16  16  16   8   8
#     4  11  21  38  58  85 114 148 194 244 290 356
#     4  10  20  36  60  86 115 149 188 242 297 353
#     4  10  19  35  57  86 116 149 192 239 297 350
#     4  10  21  37  56  85 121 153 190 241 299 359
#     4  12  23  40  59  85 120 159 202 251 295 359
#     4  11  25  40  58  83 120 162 195 240 301 359
#     4  12  23  36  62  90 115 156 200 246 300 354
#
# _framework density 17.476146
#
# number of rings (size 3 to 8) (size 9 to 14) (size 15 to 20)
#    0.000    1.273    4.545    2.455    0.000    2.182 
#    3.273    0.000    0.000    0.000    0.000    1.273 
#    0.000    0.000    0.000    0.000    0.000    0.000 
#
# Total GULP energy -245419.601236 kJ/mol
# GULP energy per Si atom -5577.718210 kJ/mol
# Density = 1.743637 g / cm^3
# Si number density = 17.476146 Si / 1000 Ang^3
#
#
#
# Elastic Constant Matrix: (Units=GPa)
#
#
# Indices 1 2 3 4 5 6 
#
# 1 96.3538 53.2847 44.5589 0.0000 0.0000 0.0000
# 2 53.2847 135.1797 52.6048 0.0000 0.0000 0.0000
# 3 44.5589 52.6048 106.4107 0.0000 0.0000 0.0000
# 4 0.0000 0.0000 0.0000 25.1576 0.0000 0.0000
# 5 0.0000 0.0000 0.0000 0.0000 16.0529 0.0000
# 6 0.0000 0.0000 0.0000 0.0000 0.0000 9.1599
#
#
#
# Elastic Compliance Matrix: (Units=1/GPa)
#
#
# Indices 1 2 3 4 5 6 
#
# 1 0.014546 -0.004165 -0.004032 0.000000 0.000000 0.000000
# 2 -0.004165 0.010352 -0.003374 0.000000 0.000000 0.000000
# 3 -0.004032 -0.003374 0.012754 0.000000 0.000000 0.000000
# 4 0.000000 0.000000 0.000000 0.039749 0.000000 0.000000
# 5 0.000000 0.000000 0.000000 0.000000 0.062294 0.000000
# 6 0.000000 0.000000 0.000000 0.000000 0.000000 0.109171
#
#
# Mechanical properties :
#
#
# Convention : Reuss Voigt Hill
#
# Bulk Modulus (GPa) = 68.91396 70.98233 69.94814
# Shear Modulus (GPa) = 18.06065 22.57381 20.31723
#
# Velocity S-wave (km/s) = 3.21821 3.59791 3.41335
# Velocity P-wave (km/s) = 7.30260 7.61346 7.45965
#
# Compressibility (1/GPa) = 0.01451085
#
# Stress axis : x y z
#
# Youngs Moduli (GPa) = 68.74617 96.59964 78.40756
#
# Poissons Ratio (x) = 0.40230 0.31617
# Poissons Ratio (y) = 0.28630 0.26452
# Poissons Ratio (z) = 0.27721 0.32589
#
# Static dielectric constant tensor:
#      x y z
#    x 1.570950 0.000000 0.000000 
#    y 0.000000 1.588520 0.000000 
#    z 0.000000 0.000000 1.604310 
# 
# From -- ./inp_files/22231.got.cif
#   From: 2010.05.17/outbox.cif.g08.bks.cpg/sg74_12_cif.got.tgz:22231.got - 2010.06.03 17:57:02.
