data_PCOD9536274
_publ_section_title
;
Structure prediction by ZEFSAII (Michael W. Deem and Ramdas Pophale) SiO2 
 PCOD9536274
Probable space group: I M M A
;
_chemical_formula_sum "Si O2"
_cell_formula_units_Z 104
_cell_length_a 7.944392
_cell_length_b 27.240203
_cell_length_c 23.747769
_cell_angle_alpha 90.000000
_cell_angle_beta 90.000000
_cell_angle_gamma 90.000000
_cell_volume 5139.179903
_symmetry_space_group_name_H-M "I M M A"
_symmetry_group_IT_number 74
_symmetry_cell_setting 'orthorhombic'
loop_
_space_group_symop_operation_xyz
x,y,z
-x,1/2-y,z
x,-y,-z
-x,1/2+y,-z
-x,-y,-z
x,1/2+y,-z
-x,y,z
x,1/2-y,z
1/2+x,1/2+y,1/2+z
1/2-x,-y,1/2+z
1/2+x,1/2-y,1/2-z
1/2-x,y,1/2-z
1/2-x,1/2-y,1/2-z
1/2+x,y,1/2-z
1/2-x,1/2+y,1/2+z
1/2+x,-y,1/2+z
loop_
_atom_site_type_symbol
_atom_site_label
_atom_site_fract_x
_atom_site_fract_y
_atom_site_fract_z
Si Si1 0.802220 0.349761 0.374609
Si Si2 0.202834 0.193853 0.492016
Si Si3 0.200912 0.951522 0.855794
Si Si4 0.700073 0.250000 0.314846
Si Si5 0.297031 0.942616 0.313325
Si Si6 0.796577 0.120229 0.919633
Si Si7 0.193875 0.555338 0.979827
O O1 0.736433 0.339928 0.439095
O O2 0.728726 0.395142 0.338112
O O3 0.770842 0.298569 0.343984
O O4 0.000000 0.358604 0.378582
O O5 0.261514 0.250000 0.484323
O O6 0.252432 0.172798 0.553381
O O7 0.000000 0.194041 0.488795
O O8 0.275083 0.947246 0.918801
O O9 0.000000 0.958896 0.859554
O O10 0.264599 0.001189 0.826098
O O11 0.500000 0.250000 0.320918
O O12 0.750000 0.250000 0.250000
O O13 0.500000 0.943581 0.316555
O O14 0.250000 0.929012 0.250000
O O15 0.237829 0.903381 0.360614
O O16 0.000000 0.117048 0.917825
O O17 0.727487 0.085381 0.969466
O O18 0.000000 0.572777 0.973027
O O19 0.183857 0.500000 0.000000
#
# Coordination Sequence:
#
# PCOD9536274 Si02
#       7
#    16  16  16   8  16  16  16
#     4  11  22  38  58  85 121 155 189 237 288 338
#     4  10  21  37  56  83 120 153 180 228 297 353
#     4  10  19  33  55  83 112 150 194 232 277 332
#     4  12  26  44  64  82 106 150 203 246 287 336
#     4  10  22  38  57  81 115 154 194 238 284 340
#     4  10  19  33  57  86 110 143 191 239 286 342
#     4   9  14  25  49  79 108 136 174 227 277 321
#
# _framework density 20.236691
#
# number of rings (size 3 to 8) (size 9 to 14) (size 15 to 20)
#    0.000    1.846    3.846    1.154    0.000    2.769 
#    0.000    1.538    0.000    3.231    0.000    0.000 
#    0.000    0.000    0.000    0.000    0.000    0.000 
#
# Total GULP energy -289690.019026 kJ/mol
# GULP energy per Si atom -5570.961904 kJ/mol
# Density = 2.019063 g / cm^3
# Si number density = 20.236691 Si / 1000 Ang^3
#
#
#
# Elastic Constant Matrix: (Units=GPa)
#
#
# Indices 1 2 3 4 5 6 
#
# 1 32.7312 7.7451 2.5167 0.0000 0.0000 0.0000
# 2 7.7451 73.0096 29.4159 0.0000 0.0000 0.0000
# 3 2.5167 29.4159 107.1699 0.0000 0.0000 0.0000
# 4 0.0000 0.0000 0.0000 18.5032 0.0000 0.0000
# 5 0.0000 0.0000 0.0000 0.0000 16.4226 0.0000
# 6 0.0000 0.0000 0.0000 0.0000 0.0000 7.4425
#
#
#
# Elastic Compliance Matrix: (Units=1/GPa)
#
#
# Indices 1 2 3 4 5 6 
#
# 1 0.031342 -0.003405 0.000199 0.000000 0.000000 0.000000
# 2 -0.003405 0.015770 -0.004249 0.000000 0.000000 0.000000
# 3 0.000199 -0.004249 0.010492 0.000000 0.000000 0.000000
# 4 0.000000 0.000000 0.000000 0.054045 0.000000 0.000000
# 5 0.000000 0.000000 0.000000 0.000000 0.060892 0.000000
# 6 0.000000 0.000000 0.000000 0.000000 0.000000 0.134364
#
#
# Mechanical properties :
#
#
# Convention : Reuss Voigt Hill
#
# Bulk Modulus (GPa) = 23.42205 32.47402 27.94804
# Shear Modulus (GPa) = 14.87892 20.02253 17.45072
#
# Velocity S-wave (km/s) = 2.71448 3.14891 2.93973
# Velocity P-wave (km/s) = 4.62858 5.41321 5.03620
#
# Compressibility (1/GPa) = 0.04269481
#
# Stress axis : x y z
#
# Youngs Moduli (GPa) = 31.90574 63.41249 95.30674
#
# Poissons Ratio (x) = 0.21591 -0.01892
# Poissons Ratio (y) = 0.10864 0.40491
# Poissons Ratio (z) = -0.00633 0.26941
#
# Static dielectric constant tensor:
#      x y z
#    x 1.743100 0.000000 0.000000 
#    y 0.000000 1.817850 0.000000 
#    z 0.000000 0.000000 1.742750 
# 
# From -- ./inp_files/57592.got.cif
#   From: 2010.05.17/outbox.cif.g08.bks.cpg/sg74_29_cif.got.tgz:57592.got - 2010.06.03 17:57:02.
