data_PCOD9536473
_publ_section_title
;
Structure prediction by ZEFSAII (Michael W. Deem and Ramdas Pophale) SiO2 
 PCOD9536473
Probable space group: I M M A
;
_chemical_formula_sum "Si O2"
_cell_formula_units_Z 112
_cell_length_a 19.336697
_cell_length_b 28.438017
_cell_length_c 11.840170
_cell_angle_alpha 90.000000
_cell_angle_beta 90.000000
_cell_angle_gamma 90.000000
_cell_volume 6510.877728
_symmetry_space_group_name_H-M "I M M A"
_symmetry_group_IT_number 74
_symmetry_cell_setting 'orthorhombic'
loop_
_space_group_symop_operation_xyz
x,y,z
-x,1/2-y,z
x,-y,-z
-x,1/2+y,-z
-x,-y,-z
x,1/2+y,-z
-x,y,z
x,1/2-y,z
1/2+x,1/2+y,1/2+z
1/2-x,-y,1/2+z
1/2+x,1/2-y,1/2-z
1/2-x,y,1/2-z
1/2-x,1/2-y,1/2-z
1/2+x,y,1/2-z
1/2-x,1/2+y,1/2+z
1/2+x,-y,1/2+z
loop_
_atom_site_type_symbol
_atom_site_label
_atom_site_fract_x
_atom_site_fract_y
_atom_site_fract_z
Si Si1 0.669908 0.919045 0.711417
Si Si2 0.079752 0.461066 0.588395
Si Si3 0.173801 0.304467 0.805190
Si Si4 0.196884 0.388730 0.975743
Si Si5 0.580631 0.693905 0.090825
Si Si6 0.358051 0.118773 0.048426
Si Si7 0.173245 0.472194 0.802535
O O1 0.750000 0.918758 0.750000
O O2 0.661734 0.889174 0.598382
O O3 0.634038 0.897980 0.822495
O O4 0.654857 0.973073 0.677395
O O5 0.109077 0.500000 0.500000
O O6 0.089996 0.412633 0.524354
O O7 0.121222 0.457671 0.703770
O O8 0.000000 0.472668 0.609529
O O9 0.159289 0.250000 0.839386
O O10 0.250000 0.304861 0.750000
O O11 0.176905 0.342923 0.903861
O O12 0.120139 0.319189 0.706974
O O13 0.175796 0.435484 0.905432
O O14 0.279719 0.389992 0.002513
O O15 0.500000 0.680714 0.094168
O O16 0.585043 0.750000 0.083518
O O17 0.620209 0.671075 0.984963
O O18 0.250000 0.471207 0.750000
#
# Coordination Sequence:
#
# PCOD9536473 Si02
#       7
#    16  16  16  16  16  16  16
#     4   9  21  32  49  77 110 142 182 223 265 316
#     4  11  22  34  52  79 109 141 181 227 280 325
#     4  10  19  34  56  81 110 137 171 224 277 325
#     4  11  20  32  54  82 107 141 185 222 271 326
#     4  10  21  36  58  85 109 140 181 228 283 335
#     4  11  19  35  53  78 113 144 180 230 276 324
#     4  11  19  33  56  77 107 145 184 231 268 322
#
# _framework density 17.201982000000001
#
# number of rings (size 3 to 8) (size 9 to 14) (size 15 to 20)
#    0.000    1.571    4.286    2.143    0.000    0.000 
#    0.000    0.714    0.000    8.571    0.000    2.000 
#    0.000    0.000    0.000    0.000    0.000    0.000 
#
# Total GULP energy -312143.805341 kJ/mol
# GULP energy per Si atom -5573.996524 kJ/mol
# Density = 1.716283 g / cm^3
# Si number density = 17.201982 Si / 1000 Ang^3
#
#
#
# Elastic Constant Matrix: (Units=GPa)
#
#
# Indices 1 2 3 4 5 6 
#
# 1 57.8525 16.1849 40.0096 0.0000 0.0000 0.0000
# 2 16.1849 86.2471 68.0574 0.0000 0.0000 0.0000
# 3 40.0096 68.0574 129.6180 0.0000 0.0000 0.0000
# 4 0.0000 0.0000 0.0000 10.3527 0.0000 0.0000
# 5 0.0000 0.0000 0.0000 0.0000 8.4641 0.0000
# 6 0.0000 0.0000 0.0000 0.0000 0.0000 20.8851
#
#
#
# Elastic Compliance Matrix: (Units=1/GPa)
#
#
# Indices 1 2 3 4 5 6 
#
# 1 0.022201 0.002120 -0.007966 0.000000 0.000000 0.000000
# 2 0.002120 0.019999 -0.011155 0.000000 0.000000 0.000000
# 3 -0.007966 -0.011155 0.016031 0.000000 0.000000 0.000000
# 4 0.000000 0.000000 0.000000 0.096593 0.000000 0.000000
# 5 0.000000 0.000000 0.000000 0.000000 0.118146 0.000000
# 6 0.000000 0.000000 0.000000 0.000000 0.000000 0.047881
#
#
# Mechanical properties :
#
#
# Convention : Reuss Voigt Hill
#
# Bulk Modulus (GPa) = 41.27313 58.02460 49.64887
# Shear Modulus (GPa) = 13.77671 17.90476 15.84073
#
# Velocity S-wave (km/s) = 2.83305 3.22973 3.03787
# Velocity P-wave (km/s) = 5.89465 6.90744 6.42105
#
# Compressibility (1/GPa) = 0.02422884
#
# Stress axis : x y z
#
# Youngs Moduli (GPa) = 45.04223 50.00162 62.37921
#
# Poissons Ratio (x) = -0.10598 0.49691
# Poissons Ratio (y) = -0.09547 0.69585
# Poissons Ratio (z) = 0.35880 0.55778
#
# Static dielectric constant tensor:
#      x y z
#    x 1.585660 0.000000 0.000000 
#    y 0.000000 1.659070 0.000000 
#    z 0.000000 0.000000 1.578390 
# 
# From -- ./inp_files/24335.got.cif
#   From: 2010.05.17/outbox.cif.g08.bks.cpg/sg74_13_cif.got.tgz:24335.got - 2010.06.03 17:57:02.
