data_PCOD9536966
_publ_section_title
;
Structure prediction by ZEFSAII (Michael W. Deem and Ramdas Pophale) SiO2 
 PCOD9536966
Probable space group: I M M A
;
_chemical_formula_sum "Si O2"
_cell_formula_units_Z 112
_cell_length_a 14.052487
_cell_length_b 37.557109
_cell_length_c 10.940247
_cell_angle_alpha 90.000000
_cell_angle_beta 90.000000
_cell_angle_gamma 90.000000
_cell_volume 5773.942758
_symmetry_space_group_name_H-M "I M M A"
_symmetry_group_IT_number 74
_symmetry_cell_setting 'orthorhombic'
loop_
_space_group_symop_operation_xyz
x,y,z
-x,1/2-y,z
x,-y,-z
-x,1/2+y,-z
-x,-y,-z
x,1/2+y,-z
-x,y,z
x,1/2-y,z
1/2+x,1/2+y,1/2+z
1/2-x,-y,1/2+z
1/2+x,1/2-y,1/2-z
1/2-x,y,1/2-z
1/2-x,1/2-y,1/2-z
1/2+x,y,1/2-z
1/2-x,1/2+y,1/2+z
1/2+x,-y,1/2+z
loop_
_atom_site_type_symbol
_atom_site_label
_atom_site_fract_x
_atom_site_fract_y
_atom_site_fract_z
Si Si1 0.885448 0.211139 0.588025
Si Si2 0.887044 0.363551 0.692485
Si Si3 0.606480 0.863638 0.676607
Si Si4 0.707225 0.611717 0.440437
Si Si5 0.794078 0.461235 0.056768
Si Si6 0.389805 0.437308 0.199116
Si Si7 0.644983 0.789813 0.802813
O O1 0.850051 0.250000 0.628026
O O2 0.861591 0.177903 0.671668
O O3 0.854351 0.204910 0.448468
O O4 0.000000 0.212429 0.584175
O O5 0.817331 0.383802 0.598410
O O6 0.855492 0.374330 0.827895
O O7 0.000000 0.368806 0.671867
O O8 0.500000 0.871410 0.628344
O O9 0.679496 0.867579 0.564653
O O10 0.627141 0.895191 0.773551
O O11 0.604539 0.825020 0.738640
O O12 0.683881 0.570477 0.463287
O O13 0.687811 0.452353 0.105919
O O14 0.864223 0.456117 0.172020
O O15 0.799901 0.500000 0.000000
O O16 0.500000 0.442319 0.165622
O O17 0.602909 0.750000 0.781378
O O18 0.750000 0.788087 0.750000
#
# Coordination Sequence:
#
# PCOD9536966 Si02
#       7
#    16  16  16  16  16  16  16
#     4   9  18  33  52  76 109 148 188 230 278 333
#     4  10  21  37  58  83 111 149 195 237 285 339
#     4  10  20  35  58  82 115 156 194 238 291 345
#     4  10  22  39  57  82 114 147 187 243 287 347
#     4  10  22  40  61  84 117 154 186 233 297 354
#     4   9  21  38  59  89 116 152 196 235 285 351
#     4  10  20  31  50  82 118 153 193 243 294 339
#
# _framework density 19.397490000000001
#
# number of rings (size 3 to 8) (size 9 to 14) (size 15 to 20)
#    0.000    2.286    0.000    1.714    6.000    4.857 
#    0.000    3.571    0.000    1.714    0.000    0.000 
#    0.000    0.000    0.000    0.000    0.000    0.000 
#
# Total GULP energy -312430.801123 kJ/mol
# GULP energy per Si atom -5579.121449 kJ/mol
# Density = 1.935334 g / cm^3
# Si number density = 19.397490 Si / 1000 Ang^3
#
#
#
# Elastic Constant Matrix: (Units=GPa)
#
#
# Indices 1 2 3 4 5 6 
#
# 1 66.1059 10.1870 10.2880 0.0019 -0.0009 -0.0007
# 2 10.1870 162.9647 65.1465 0.0042 -0.0028 -0.0012
# 3 10.2880 65.1465 69.6474 0.0084 -0.0054 -0.0021
# 4 0.0019 0.0042 0.0084 26.3863 -0.0033 -0.0013
# 5 -0.0009 -0.0028 -0.0054 -0.0033 10.4712 0.0017
# 6 -0.0007 -0.0012 -0.0021 -0.0013 0.0017 13.9645
#
#
#
# Elastic Compliance Matrix: (Units=1/GPa)
#
#
# Indices 1 2 3 4 5 6 
#
# 1 0.015484 -0.000086 -0.002207 0.000000 0.000000 0.000000
# 2 -0.000086 0.009802 -0.009156 0.000001 -0.000002 -0.000001
# 3 -0.002207 -0.009156 0.023248 -0.000006 0.000009 0.000003
# 4 0.000000 0.000001 -0.000006 0.037899 0.000012 0.000004
# 5 0.000000 -0.000002 0.000009 0.000012 0.095500 -0.000011
# 6 0.000000 -0.000001 0.000003 0.000004 -0.000011 0.071610
#
#
# Mechanical properties :
#
#
# Convention : Reuss Voigt Hill
#
# Bulk Modulus (GPa) = 39.00627 52.21788 45.61207
# Shear Modulus (GPa) = 17.54483 24.37084 20.95784
#
# Velocity S-wave (km/s) = 3.01074 3.54841 3.29057
# Velocity P-wave (km/s) = 5.67791 6.61563 6.16463
#
# Compressibility (1/GPa) = 0.02563691
#
# Stress axis : x y z
#
# Youngs Moduli (GPa) = 64.58304 102.02342 43.01445
#
# Poissons Ratio (x) = 0.00873 0.09494
# Poissons Ratio (y) = 0.00553 0.39382
# Poissons Ratio (z) = 0.14255 0.93409
#
# Static dielectric constant tensor:
#      x y z
#    x 1.695680 0.000000 0.000000 
#    y 0.000000 1.694020 0.000000 
#    z 0.000000 0.000000 1.650880 
# 
# From -- ./inp_files/21101.got.cif
#   From: 2010.05.17/outbox.cif.g08.bks.cpg/sg74_11_cif.got.tgz:21101.got - 2010.06.03 17:57:02.
