data_PCOD9536494
_publ_section_title
;
Structure prediction by ZEFSAII (Michael W. Deem and Ramdas Pophale) SiO2 
 PCOD9536494
Probable space group: I M M A
;
_chemical_formula_sum "Si O2"
_cell_formula_units_Z 92
_cell_length_a 21.260752
_cell_length_b 26.867867
_cell_length_c 8.551756
_cell_angle_alpha 90.000000
_cell_angle_beta 90.000000
_cell_angle_gamma 90.000000
_cell_volume 4885.028620
_symmetry_space_group_name_H-M "I M M A"
_symmetry_group_IT_number 74
_symmetry_cell_setting 'orthorhombic'
loop_
_space_group_symop_operation_xyz
x,y,z
-x,1/2-y,z
x,-y,-z
-x,1/2+y,-z
-x,-y,-z
x,1/2+y,-z
-x,y,z
x,1/2-y,z
1/2+x,1/2+y,1/2+z
1/2-x,-y,1/2+z
1/2+x,1/2-y,1/2-z
1/2-x,y,1/2-z
1/2-x,1/2-y,1/2-z
1/2+x,y,1/2-z
1/2-x,1/2+y,1/2+z
1/2+x,-y,1/2+z
loop_
_atom_site_type_symbol
_atom_site_label
_atom_site_fract_x
_atom_site_fract_y
_atom_site_fract_z
Si Si1 0.864095 0.750000 0.660962
Si Si2 0.630149 0.845174 0.343820
Si Si3 0.500000 0.750000 0.789606
Si Si4 0.178340 0.052223 0.310605
Si Si5 0.000000 0.307170 0.978994
Si Si6 0.681182 0.347324 0.327644
Si Si7 0.821584 0.441680 0.684634
Si Si8 0.318276 0.250000 0.827353
O O1 0.936797 0.750000 0.611319
O O2 0.852965 0.701396 0.764337
O O3 0.817831 0.750000 0.514365
O O4 0.562499 0.834780 0.421357
O O5 0.680475 0.845439 0.485858
O O6 0.637829 0.897154 0.255231
O O7 0.646550 0.799427 0.231114
O O8 0.500000 0.796289 0.665973
O O9 0.250000 0.049506 0.250000
O O10 0.150093 0.100602 0.226702
O O11 0.179775 0.060964 0.496447
O O12 0.152794 0.997050 0.275778
O O13 0.000000 0.250000 0.914796
O O14 0.750000 0.346224 0.250000
O O15 0.750000 0.437274 0.750000
O O16 0.250000 0.250000 0.750000
#
# Coordination Sequence:
#
# PCOD9536494 Si02
#       8
#     8  16   4  16   8  16  16   8
#     4  12  22  36  59  82 116 151 198 242 291 351
#     4  12  22  37  61  82 120 157 198 247 286 355
#     4  10  20  42  60  82 110 160 208 244 278 348
#     4   9  19  34  54  82 124 157 189 236 297 368
#     4  10  20  43  60  78 118 158 209 235 296 339
#     4  11  20  34  56  85 115 154 189 239 306 355
#     4  10  19  34  56  89 117 153 197 241 299 358
#     4  12  24  37  54  90 125 147 183 243 308 358
#
# _framework density 18.833053
#
# number of rings (size 3 to 8) (size 9 to 14) (size 15 to 20)
#    0.261    1.043    2.609    5.478    0.000    2.783 
#    0.000    0.000    0.000    5.217    0.000    0.000 
#    0.000    0.000    0.000    0.000    0.000    0.000 
#
# Total GULP energy -256728.392660 kJ/mol
# GULP energy per Si atom -5581.052014 kJ/mol
# Density = 1.879019 g / cm^3
# Si number density = 18.833053 Si / 1000 Ang^3
#
#
#
# Elastic Constant Matrix: (Units=GPa)
#
#
# Indices 1 2 3 4 5 6 
#
# 1 53.6814 12.8857 -6.4956 0.0000 0.0000 0.0000
# 2 12.8857 166.8612 43.0054 0.0000 0.0000 0.0000
# 3 -6.4956 43.0054 74.1918 0.0000 0.0000 0.0000
# 4 0.0000 0.0000 0.0000 23.3807 0.0000 0.0000
# 5 0.0000 0.0000 0.0000 0.0000 21.3502 0.0000
# 6 0.0000 0.0000 0.0000 0.0000 0.0000 -101.4448
#
#
#
# Elastic Compliance Matrix: (Units=1/GPa)
#
#
# Indices 1 2 3 4 5 6 
#
# 1 0.019547 -0.002293 0.003041 0.000000 0.000000 0.000000
# 2 -0.002293 0.007315 -0.004441 0.000000 0.000000 0.000000
# 3 0.003041 -0.004441 0.016319 0.000000 0.000000 0.000000
# 4 0.000000 0.000000 0.000000 0.042770 0.000000 0.000000
# 5 0.000000 0.000000 0.000000 0.000000 0.046838 0.000000
# 6 0.000000 0.000000 0.000000 0.000000 0.000000 -0.009858
#
#
# Mechanical properties :
#
#
# Convention : Reuss Voigt Hill
#
# Bulk Modulus (GPa) = 27.93787 43.72504 35.83145
# Shear Modulus (GPa) = 35.14974 5.01316 20.08145
#
# Velocity S-wave (km/s) = 4.32486 1.63330 3.26895
# Velocity P-wave (km/s) = 6.30919 5.17924 5.77193
#
# Compressibility (1/GPa) = 0.03579371
#
# Stress axis : x y z
#
# Youngs Moduli (GPa) = 51.15931 136.71298 61.27889
#
# Poissons Ratio (x) = 0.31350 -0.18632
# Poissons Ratio (y) = 0.11731 0.27212
# Poissons Ratio (z) = -0.15555 0.60710
#
# Static dielectric constant tensor:
#      x y z
#    x 1.643340 0.000000 0.000000 
#    y 0.000000 1.693520 0.000000 
#    z 0.000000 0.000000 1.645500 
# 
# From -- ./inp_files/12752.got.cif
#   From: 2010.05.17/outbox.cif.g08.bks.cpg/sg74_7_cif.got.tgz:12752.got - 2010.06.03 17:57:02.
