data_PCOD9536306
_publ_section_title
;
Structure prediction by ZEFSAII (Michael W. Deem and Ramdas Pophale) SiO2 
 PCOD9536306
Probable space group: I M M A
;
_chemical_formula_sum "Si O2"
_cell_formula_units_Z 112
_cell_length_a 15.798661
_cell_length_b 30.275263
_cell_length_c 11.450016
_cell_angle_alpha 90.000000
_cell_angle_beta 90.000000
_cell_angle_gamma 90.000000
_cell_volume 5476.641316
_symmetry_space_group_name_H-M "I M M A"
_symmetry_group_IT_number 74
_symmetry_cell_setting 'orthorhombic'
loop_
_space_group_symop_operation_xyz
x,y,z
-x,1/2-y,z
x,-y,-z
-x,1/2+y,-z
-x,-y,-z
x,1/2+y,-z
-x,y,z
x,1/2-y,z
1/2+x,1/2+y,1/2+z
1/2-x,-y,1/2+z
1/2+x,1/2-y,1/2-z
1/2-x,y,1/2-z
1/2-x,1/2-y,1/2-z
1/2+x,y,1/2-z
1/2-x,1/2+y,1/2+z
1/2+x,-y,1/2+z
loop_
_atom_site_type_symbol
_atom_site_label
_atom_site_fract_x
_atom_site_fract_y
_atom_site_fract_z
Si Si1 0.100881 0.202006 0.716800
Si Si2 0.325446 0.934384 0.979743
Si Si3 0.098888 0.799786 0.003132
Si Si4 0.900862 0.895221 0.297231
Si Si5 0.210432 0.367997 0.135539
Si Si6 0.599589 0.450451 0.267756
Si Si7 0.684946 0.533880 0.353133
O O1 0.136409 0.250000 0.677519
O O2 0.133677 0.154136 0.677112
O O3 0.000000 0.203026 0.689512
O O4 0.109057 0.199937 0.856970
O O5 0.288992 0.888127 0.934405
O O6 0.368832 0.956610 0.867209
O O7 0.386493 0.925335 0.088628
O O8 0.242175 0.957326 0.034237
O O9 0.118451 0.750000 0.963015
O O10 0.155618 0.835691 0.941380
O O11 0.000000 0.808592 0.979463
O O12 0.855992 0.919981 0.189756
O O13 0.000000 0.891613 0.270922
O O14 0.250000 0.345714 0.250000
O O15 0.154096 0.409866 0.180022
O O16 0.500000 0.440748 0.267521
O O17 0.618087 0.494270 0.344375
O O18 0.750000 0.521546 0.250000
#
# Coordination Sequence:
#
# PCOD9536306 Si02
#       7
#    16  16  16  16  16  16  16
#     4   8  15  29  51  79 109 139 175 223 274 321
#     4  10  22  39  57  79 112 149 179 221 282 335
#     4   9  17  32  55  80 107 144 188 233 282 335
#     4  10  19  33  56  84 111 145 189 229 268 327
#     4  10  21  36  55  79 110 145 182 231 286 333
#     4  11  23  40  60  83 109 144 191 231 270 329
#     4  10  21  36  55  80 111 142 177 222 274 325
#
# _framework density 20.450491
#
# number of rings (size 3 to 8) (size 9 to 14) (size 15 to 20)
#    0.000    2.286    0.000    4.286    0.000    5.429 
#    0.000    7.143    0.000    6.429    0.000    8.000 
#    0.000    0.000    0.000    0.000    0.000    0.000 
#
# Total GULP energy -312466.864797 kJ/mol
# GULP energy per Si atom -5579.765443 kJ/mol
# Density = 2.040394 g / cm^3
# Si number density = 20.450491 Si / 1000 Ang^3
#
#
#
# Elastic Constant Matrix: (Units=GPa)
#
#
# Indices 1 2 3 4 5 6 
#
# 1 49.2338 5.6028 1.2638 -0.0003 0.0000 0.0000
# 2 5.6028 78.7515 -5.8441 -0.0004 0.0002 0.0001
# 3 1.2638 -5.8441 22.0371 0.0002 0.0001 0.0000
# 4 -0.0003 -0.0004 0.0002 33.4047 0.0001 0.0000
# 5 0.0000 0.0002 0.0001 0.0001 24.0437 0.0000
# 6 0.0000 0.0001 0.0000 0.0000 0.0000 30.4245
#
#
#
# Elastic Compliance Matrix: (Units=1/GPa)
#
#
# Indices 1 2 3 4 5 6 
#
# 1 0.020532 -0.001579 -0.001596 0.000000 0.000000 0.000000
# 2 -0.001579 0.013075 0.003558 0.000000 0.000000 0.000000
# 3 -0.001596 0.003558 0.046413 0.000000 0.000000 0.000000
# 4 0.000000 0.000000 0.000000 0.029936 0.000000 0.000000
# 5 0.000000 0.000000 0.000000 0.000000 0.041591 0.000000
# 6 0.000000 0.000000 0.000000 0.000000 0.000000 0.032868
#
#
# Mechanical properties :
#
#
# Convention : Reuss Voigt Hill
#
# Bulk Modulus (GPa) = 12.37866 16.89639 14.63753
# Shear Modulus (GPa) = 23.74420 27.50793 25.62606
#
# Velocity S-wave (km/s) = 3.41113 3.67154 3.54372
# Velocity P-wave (km/s) = 4.64548 5.12383 4.89051
#
# Compressibility (1/GPa) = 0.08078417
#
# Stress axis : x y z
#
# Youngs Moduli (GPa) = 48.70462 76.48448 21.54570
#
# Poissons Ratio (x) = 0.12079 0.03439
# Poissons Ratio (y) = 0.07691 -0.07666
# Poissons Ratio (z) = 0.07774 -0.27212
#
# Static dielectric constant tensor:
#      x y z
#    x 1.708320 0.000000 0.000000 
#    y 0.000000 1.793830 0.000000 
#    z 0.000000 0.000000 1.727150 
# 
# From -- ./inp_files/21165.got.cif
#   From: 2010.05.17/outbox.cif.g08.bks.cpg/sg74_11_cif.got.tgz:21165.got - 2010.06.03 17:57:02.
