data_PCOD9536872
_publ_section_title
;
Structure prediction by ZEFSAII (Michael W. Deem and Ramdas Pophale) SiO2 
 PCOD9536872
Probable space group: I M M A
;
_chemical_formula_sum "Si O2"
_cell_formula_units_Z 80
_cell_length_a 19.409488
_cell_length_b 25.225785
_cell_length_c 9.143626
_cell_angle_alpha 90.000000
_cell_angle_beta 90.000000
_cell_angle_gamma 90.000000
_cell_volume 4476.898242
_symmetry_space_group_name_H-M "I M M A"
_symmetry_group_IT_number 74
_symmetry_cell_setting 'orthorhombic'
loop_
_space_group_symop_operation_xyz
x,y,z
-x,1/2-y,z
x,-y,-z
-x,1/2+y,-z
-x,-y,-z
x,1/2+y,-z
-x,y,z
x,1/2-y,z
1/2+x,1/2+y,1/2+z
1/2-x,-y,1/2+z
1/2+x,1/2-y,1/2-z
1/2-x,y,1/2-z
1/2-x,1/2-y,1/2-z
1/2+x,y,1/2-z
1/2-x,1/2+y,1/2+z
1/2+x,-y,1/2+z
loop_
_atom_site_type_symbol
_atom_site_label
_atom_site_fract_x
_atom_site_fract_y
_atom_site_fract_z
Si Si1 0.691436 0.156761 0.947544
Si Si2 0.582366 0.460849 0.637362
Si Si3 0.648016 0.156218 0.621724
Si Si4 0.919933 0.750000 0.947770
Si Si5 0.324215 0.250000 0.170749
Si Si6 0.309585 0.960558 0.126841
O O1 0.659576 0.172494 0.790686
O O2 0.774641 0.157453 0.942061
O O3 0.673186 0.094693 0.953622
O O4 0.669468 0.197653 0.070844
O O5 0.594693 0.500000 0.500000
O O6 0.500000 0.457528 0.660317
O O7 0.614363 0.402138 0.610748
O O8 0.624295 0.479972 0.780815
O O9 0.602705 0.198611 0.538479
O O10 0.880230 0.750000 0.795965
O O11 0.000000 0.750000 0.922910
O O12 0.250000 0.250000 0.250000
O O13 0.250000 0.951624 0.250000
O O14 0.286487 0.000000 0.000000
#
# Coordination Sequence:
#
# PCOD9536872 Si02
#       6
#    16  16  16   8   8  16
#     4  10  20  38  61  89 112 146 197 239 279 342
#     4  10  21  38  59  86 119 156 194 231 283 347
#     4  10  19  38  62  85 112 149 196 237 278 338
#     4  12  25  39  57  87 119 150 192 238 291 345
#     4  12  23  37  58  87 118 153 183 242 297 339
#     4  11  22  37  59  88 118 150 193 244 286 335
#
# _framework density 17.869515
#
# number of rings (size 3 to 8) (size 9 to 14) (size 15 to 20)
#    0.000    1.400    6.000    1.800    0.000    4.400 
#    0.000    6.000    0.000    0.000    0.000    0.000 
#    0.000    0.000    0.000    0.000    0.000    0.000 
#
# Total GULP energy -223166.786137 kJ/mol
# GULP energy per Si atom -5579.169653 kJ/mol
# Density = 1.782884 g / cm^3
# Si number density = 17.869515 Si / 1000 Ang^3
#
#
#
# Elastic Constant Matrix: (Units=GPa)
#
#
# Indices 1 2 3 4 5 6 
#
# 1 121.3204 32.6998 47.1862 0.0000 0.0000 0.0000
# 2 32.6998 85.1146 58.0152 0.0000 0.0000 0.0000
# 3 47.1862 58.0152 63.3024 0.0000 0.0000 0.0000
# 4 0.0000 0.0000 0.0000 23.9935 0.0000 0.0000
# 5 0.0000 0.0000 0.0000 0.0000 28.8023 0.0000
# 6 0.0000 0.0000 0.0000 0.0000 0.0000 17.8902
#
#
#
# Elastic Compliance Matrix: (Units=1/GPa)
#
#
# Indices 1 2 3 4 5 6 
#
# 1 0.012097 0.003993 -0.012677 0.000000 0.000000 0.000000
# 2 0.003993 0.032622 -0.032874 0.000000 0.000000 0.000000
# 3 -0.012677 -0.032874 0.055375 0.000000 0.000000 0.000000
# 4 0.000000 0.000000 0.000000 0.041678 0.000000 0.000000
# 5 0.000000 0.000000 0.000000 0.000000 0.034719 0.000000
# 6 0.000000 0.000000 0.000000 0.000000 0.000000 0.055897
#
#
# Mechanical properties :
#
#
# Convention : Reuss Voigt Hill
#
# Bulk Modulus (GPa) = 58.89746 60.61552 59.75649
# Shear Modulus (GPa) = 15.56849 22.92629 19.24739
#
# Velocity S-wave (km/s) = 2.95487 3.58576 3.28549
# Velocity P-wave (km/s) = 6.68378 7.15111 6.92139
#
# Compressibility (1/GPa) = 0.01697866
#
# Stress axis : x y z
#
# Youngs Moduli (GPa) = 82.66637 30.65423 18.05881
#
# Poissons Ratio (x) = -0.12241 0.22893
# Poissons Ratio (y) = -0.33011 0.59366
# Poissons Ratio (z) = 1.04794 1.00772
#
# Static dielectric constant tensor:
#      x y z
#    x 1.603420 0.000000 0.000000 
#    y 0.000000 1.622520 0.000000 
#    z 0.000000 0.000000 1.592780 
# 
# From -- ./inp_files/11004.got.cif
#   From: 2010.05.17/outbox.cif.g08.bks.cpg/sg74_6_cif.got.tgz:11004.got - 2010.06.03 17:57:02.
