data_PCOD9536607
_publ_section_title
;
Structure prediction by ZEFSAII (Michael W. Deem and Ramdas Pophale) SiO2 
 PCOD9536607
Probable space group: I M M A
;
_chemical_formula_sum "Si O2"
_cell_formula_units_Z 60
_cell_length_a 26.438895
_cell_length_b 5.585010
_cell_length_c 18.599523
_cell_angle_alpha 90.000000
_cell_angle_beta 90.000000
_cell_angle_gamma 90.000000
_cell_volume 2746.433335
_symmetry_space_group_name_H-M "I M M A"
_symmetry_group_IT_number 74
_symmetry_cell_setting 'orthorhombic'
loop_
_space_group_symop_operation_xyz
x,y,z
-x,1/2-y,z
x,-y,-z
-x,1/2+y,-z
-x,-y,-z
x,1/2+y,-z
-x,y,z
x,1/2-y,z
1/2+x,1/2+y,1/2+z
1/2-x,-y,1/2+z
1/2+x,1/2-y,1/2-z
1/2-x,y,1/2-z
1/2-x,1/2-y,1/2-z
1/2+x,y,1/2-z
1/2-x,1/2+y,1/2+z
1/2+x,-y,1/2+z
loop_
_atom_site_type_symbol
_atom_site_label
_atom_site_fract_x
_atom_site_fract_y
_atom_site_fract_z
Si Si1 0.761046 0.250000 0.651530
Si Si2 0.943886 0.750000 0.238282
Si Si3 0.500000 0.250000 0.454976
Si Si4 0.389221 0.250000 0.391765
Si Si5 0.300865 0.750000 0.843464
Si Si6 0.593408 0.250000 0.223734
Si Si7 0.822389 0.750000 0.498064
Si Si8 0.644193 0.250000 0.618093
O O1 0.780511 0.498156 0.685399
O O2 0.787171 0.250000 0.572190
O O3 0.700934 0.250000 0.646902
O O4 0.936560 0.500419 0.280596
O O5 0.900118 0.750000 0.178373
O O6 0.000000 0.750000 0.205277
O O7 0.500000 0.500000 0.500000
O O8 0.448856 0.250000 0.408467
O O9 0.382816 0.250000 0.304896
O O10 0.365121 0.495712 0.419772
O O11 0.360706 0.750000 0.831546
O O12 0.289570 0.750000 0.928906
O O13 0.851792 0.500000 0.500000
#
# Coordination Sequence:
#
# PCOD9536607 Si02
#       8
#     8   8   4   8   8   8   8   8
#     4  10  19  35  55  84 121 160 196 241 290 354
#     4  10  21  36  56  81 117 152 195 246 304 347
#     4  12  26  46  66  86 110 156 206 256 318 360
#     4  10  23  40  60  82 115 145 196 254 295 350
#     4  10  19  35  56  83 125 153 196 242 290 365
#     4  10  21  36  60  91 111 156 198 242 303 361
#     4   8  16  30  51  76 108 153 185 225 280 328
#     4  10  21  36  60  89 111 156 199 236 301 359
#
# _framework density 21.846516999999999
#
# number of rings (size 3 to 8) (size 9 to 14) (size 15 to 20)
#    0.000    2.133    0.000    2.800    7.467    0.000 
#    0.000   28.000    0.000    0.000    0.000    0.000 
#    0.000   96.000    0.000    0.000    0.000    0.000 
#
# Total GULP energy -167291.490436 kJ/mol
# GULP energy per Si atom -5576.383015 kJ/mol
# Density = 2.179679 g / cm^3
# Si number density = 21.846517 Si / 1000 Ang^3
#
#
#
# Elastic Constant Matrix: (Units=GPa)
#
#
# Indices 1 2 3 4 5 6 
#
# 1 88.6370 37.8917 -10.6093 0.0000 0.0000 0.0000
# 2 37.8917 282.0999 -0.7283 0.0000 0.0000 0.0000
# 3 -10.6093 -0.7283 52.2043 0.0000 0.0000 0.0000
# 4 0.0000 0.0000 0.0000 -88.4548 0.0000 0.0000
# 5 0.0000 0.0000 0.0000 0.0000 -22.9253 0.0000
# 6 0.0000 0.0000 0.0000 0.0000 0.0000 42.4217
#
#
#
# Elastic Compliance Matrix: (Units=1/GPa)
#
#
# Indices 1 2 3 4 5 6 
#
# 1 0.012280 -0.001643 0.002473 0.000000 0.000000 0.000000
# 2 -0.001643 0.003765 -0.000281 0.000000 0.000000 0.000000
# 3 0.002473 -0.000281 0.019654 0.000000 0.000000 0.000000
# 4 0.000000 0.000000 0.000000 -0.011305 0.000000 0.000000
# 5 0.000000 0.000000 0.000000 0.000000 -0.043620 0.000000
# 6 0.000000 0.000000 0.000000 0.000000 0.000000 0.023573
#
#
# Mechanical properties :
#
#
# Convention : Reuss Voigt Hill
#
# Bulk Modulus (GPa) = 27.17703 52.89439 40.03571
# Shear Modulus (GPa) = 322.25399 12.63413 167.44406
#
# Velocity S-wave (km/s) = 12.15847 2.40742 8.76425
# Velocity P-wave (km/s) = 14.47659 5.65614 10.99007
#
# Compressibility (1/GPa) = 0.03679578
#
# Stress axis : x y z
#
# Youngs Moduli (GPa) = 81.43084 265.61695 50.87996
#
# Poissons Ratio (x) = 0.43644 -0.12581
# Poissons Ratio (y) = 0.13380 0.01432
# Poissons Ratio (z) = -0.20136 0.07475
#
# Static dielectric constant tensor:
#      x y z
#    x 1.838700 0.000000 0.000000 
#    y 0.000000 1.936450 0.000000 
#    z 0.000000 0.000000 1.819710 
# 
# From -- ./inp_files/47466.got.cif
#   From: 2010.05.17/outbox.cif.g08.bks.cpg/sg74_24_cif.got.tgz:47466.got - 2010.06.03 17:57:02.
