data_PCOD9536547
_publ_section_title
;
Structure prediction by ZEFSAII (Michael W. Deem and Ramdas Pophale) SiO2 
 PCOD9536547
Probable space group: I M M A
;
_chemical_formula_sum "Si O2"
_cell_formula_units_Z 116
_cell_length_a 16.768636
_cell_length_b 27.010953
_cell_length_c 13.139915
_cell_angle_alpha 90.000000
_cell_angle_beta 90.000000
_cell_angle_gamma 90.000000
_cell_volume 5951.551563
_symmetry_space_group_name_H-M "I M M A"
_symmetry_group_IT_number 74
_symmetry_cell_setting 'orthorhombic'
loop_
_space_group_symop_operation_xyz
x,y,z
-x,1/2-y,z
x,-y,-z
-x,1/2+y,-z
-x,-y,-z
x,1/2+y,-z
-x,y,z
x,1/2-y,z
1/2+x,1/2+y,1/2+z
1/2-x,-y,1/2+z
1/2+x,1/2-y,1/2-z
1/2-x,y,1/2-z
1/2-x,1/2-y,1/2-z
1/2+x,y,1/2-z
1/2-x,1/2+y,1/2+z
1/2+x,-y,1/2+z
loop_
_atom_site_type_symbol
_atom_site_label
_atom_site_fract_x
_atom_site_fract_y
_atom_site_fract_z
Si Si1 0.409221 0.660538 0.494754
Si Si2 0.333341 0.845773 0.277493
Si Si3 0.155691 0.528318 0.727435
Si Si4 0.750000 0.250000 0.750000
Si Si5 0.871328 0.052458 0.048518
Si Si6 0.909811 0.924185 0.347792
Si Si7 0.805262 0.905825 0.543435
Si Si8 0.732624 0.806987 0.629068
O O1 0.500000 0.679848 0.486796
O O2 0.355259 0.668415 0.393404
O O3 0.412971 0.601218 0.506812
O O4 0.357817 0.682085 0.589528
O O5 0.250000 0.874276 0.250000
O O6 0.314702 0.794027 0.223241
O O7 0.401204 0.880909 0.235184
O O8 0.250000 0.522207 0.750000
O O9 0.117737 0.548602 0.830712
O O10 0.119617 0.475921 0.697688
O O11 0.149884 0.567133 0.635833
O O12 0.777555 0.064117 0.028706
O O13 0.893169 0.000000 0.000000
O O14 0.855191 0.909171 0.441976
O O15 0.000000 0.929598 0.381943
O O16 0.782854 0.849919 0.573838
O O17 0.751502 0.750000 0.601790
O O18 0.750000 0.812671 0.750000
#
# Coordination Sequence:
#
# PCOD9536547 Si02
#       8
#    16  16  16   4  16  16  16  16
#     4  11  23  37  60  95 128 156 196 257 320 369
#     4  10  21  41  64  87 118 159 211 253 300 363
#     4  10  20  36  59  84 116 161 210 253 297 359
#     4   8  24  40  70  88 106 168 216 260 300 360
#     4  10  19  34  58  85 116 159 204 249 302 363
#     4  12  24  37  57  91 129 163 194 243 310 374
#     4  10  20  37  59  84 118 158 210 251 292 367
#     4  10  22  42  67  89 114 156 206 255 306 369
#
# _framework density 19.490715999999999
#
# number of rings (size 3 to 8) (size 9 to 14) (size 15 to 20)
#    0.414    1.241    0.000    7.448    0.966    2.207 
#    0.000    3.103    0.000    0.828    0.000    0.000 
#    0.000    0.000    0.000    0.000    0.000    0.000 
#
# Total GULP energy -323040.214709 kJ/mol
# GULP energy per Si atom -5569.658874 kJ/mol
# Density = 1.944635 g / cm^3
# Si number density = 19.490716 Si / 1000 Ang^3
#
#
#
# Elastic Constant Matrix: (Units=GPa)
#
#
# Indices 1 2 3 4 5 6 
#
# 1 50.3283 2.6860 34.4462 -0.0001 0.0000 0.0000
# 2 2.6860 103.3027 -0.8178 -0.0005 0.0000 0.0000
# 3 34.4462 -0.8178 68.9718 -0.0025 0.0000 0.0000
# 4 -0.0001 -0.0005 -0.0025 -75.1350 0.0002 -0.0005
# 5 0.0000 0.0000 0.0000 0.0002 1.6896 0.0000
# 6 0.0000 0.0000 0.0000 -0.0005 0.0000 -10.0450
#
#
#
# Elastic Compliance Matrix: (Units=1/GPa)
#
#
# Indices 1 2 3 4 5 6 
#
# 1 0.030273 -0.000907 -0.015130 0.000000 0.000000 0.000000
# 2 -0.000907 0.009708 0.000568 0.000000 0.000000 0.000000
# 3 -0.015130 0.000568 0.022062 -0.000001 0.000000 0.000000
# 4 0.000000 0.000000 -0.000001 -0.013309 0.000002 0.000001
# 5 0.000000 0.000000 0.000000 0.000002 0.591854 0.000001
# 6 0.000000 0.000000 0.000000 0.000001 0.000001 -0.099552
#
#
# Mechanical properties :
#
#
# Convention : Reuss Voigt Hill
#
# Bulk Modulus (GPa) = 32.14847 32.80351 32.47599
# Shear Modulus (GPa) = 8.58602 -4.27885 2.15359
#
# Velocity S-wave (km/s) = 2.10113 -1.48327 1.05230
# Velocity P-wave (km/s) = 4.73459 3.73275 4.26320
#
# Compressibility (1/GPa) = 0.03110568
#
# Stress axis : x y z
#
# Youngs Moduli (GPa) = 33.03238 103.00389 45.32745
#
# Poissons Ratio (x) = 0.09342 0.68580
# Poissons Ratio (y) = 0.02996 -0.02575
# Poissons Ratio (z) = 0.49978 -0.05851
#
# Static dielectric constant tensor:
#      x y z
#    x 1.582360 0.000000 0.000000 
#    y 0.000000 1.648900 0.000000 
#    z 0.000000 0.000000 1.714130 
# 
# From -- ./inp_files/22848.got.cif
#   From: 2010.05.17/outbox.cif.g08.bks.cpg/sg74_12_cif.got.tgz:22848.got - 2010.06.03 17:57:02.
