data_PCOD9536939
_publ_section_title
;
Structure prediction by ZEFSAII (Michael W. Deem and Ramdas Pophale) SiO2 
 PCOD9536939
Probable space group: I M M A
;
_chemical_formula_sum "Si O2"
_cell_formula_units_Z 96
_cell_length_a 18.843332
_cell_length_b 9.021599
_cell_length_c 33.287851
_cell_angle_alpha 90.000000
_cell_angle_beta 90.000000
_cell_angle_gamma 90.000000
_cell_volume 5658.834311
_symmetry_space_group_name_H-M "I M M A"
_symmetry_group_IT_number 74
_symmetry_cell_setting 'orthorhombic'
loop_
_space_group_symop_operation_xyz
x,y,z
-x,1/2-y,z
x,-y,-z
-x,1/2+y,-z
-x,-y,-z
x,1/2+y,-z
-x,y,z
x,1/2-y,z
1/2+x,1/2+y,1/2+z
1/2-x,-y,1/2+z
1/2+x,1/2-y,1/2-z
1/2-x,y,1/2-z
1/2-x,1/2-y,1/2-z
1/2+x,y,1/2-z
1/2-x,1/2+y,1/2+z
1/2+x,-y,1/2+z
loop_
_atom_site_type_symbol
_atom_site_label
_atom_site_fract_x
_atom_site_fract_y
_atom_site_fract_z
Si Si1 0.418059 0.571715 0.826778
Si Si2 0.282358 0.073284 0.542320
Si Si3 0.209373 0.072948 0.382782
Si Si4 0.851889 0.424740 0.165671
Si Si5 0.416724 0.926198 0.257622
Si Si6 0.581429 0.072620 0.419571
O O1 0.500000 0.529582 0.834556
O O2 0.414898 0.750000 0.822793
O O3 0.364464 0.530021 0.862238
O O4 0.395817 0.500684 0.784471
O O5 0.281699 0.250000 0.539866
O O6 0.263377 0.000000 0.500000
O O7 0.230690 0.014939 0.577439
O O8 0.360768 0.015330 0.554839
O O9 0.209389 0.250000 0.391492
O O10 0.272604 0.048026 0.350619
O O11 0.859134 0.250000 0.174538
O O12 0.872604 0.515104 0.204770
O O13 0.902238 0.458610 0.127409
O O14 0.500000 0.963965 0.264412
O O15 0.410682 0.750000 0.254248
O O16 0.500000 0.037861 0.429232
O O17 0.592842 0.250000 0.425080
#
# Coordination Sequence:
#
# PCOD9536939 Si02
#       6
#    16  16  16  16  16  16
#     4   9  18  34  56  77  97 127 165 203 248 304
#     4  11  22  36  55  77 102 132 165 202 247 298
#     4   9  19  36  55  76 101 127 161 205 252 302
#     4   9  17  30  48  69  97 135 173 207 244 287
#     4  10  20  31  44  67 101 137 172 212 250 284
#     4   9  18  33  52  74 102 137 176 215 252 290
#
# _framework density 16.964625000000002
#
# number of rings (size 3 to 8) (size 9 to 14) (size 15 to 20)
#    0.000    2.500    0.000    3.500    0.000    6.333 
#    0.000    3.333    0.000    0.500    0.000    0.000 
#    0.000    0.000    0.000    0.000    0.000    0.000 
#
# Total GULP energy -267835.834610 kJ/mol
# GULP energy per Si atom -5579.913221 kJ/mol
# Density = 1.692601 g / cm^3
# Si number density = 16.964625 Si / 1000 Ang^3
#
#
#
# Elastic Constant Matrix: (Units=GPa)
#
#
# Indices 1 2 3 4 5 6 
#
# 1 53.9917 41.7162 62.8916 0.0000 0.0000 0.0000
# 2 41.7162 60.8786 66.6970 0.0000 0.0000 0.0000
# 3 62.8916 66.6970 125.8003 0.0000 0.0000 0.0000
# 4 0.0000 0.0000 0.0000 28.4033 0.0000 0.0000
# 5 0.0000 0.0000 0.0000 0.0000 6.1610 0.0000
# 6 0.0000 0.0000 0.0000 0.0000 0.0000 18.7959
#
#
#
# Elastic Compliance Matrix: (Units=1/GPa)
#
#
# Indices 1 2 3 4 5 6 
#
# 1 0.050497 -0.016568 -0.016461 0.000000 0.000000 0.000000
# 2 -0.016568 0.044626 -0.015377 0.000000 0.000000 0.000000
# 3 -0.016461 -0.015377 0.024331 0.000000 0.000000 0.000000
# 4 0.000000 0.000000 0.000000 0.035207 0.000000 0.000000
# 5 0.000000 0.000000 0.000000 0.000000 0.162312 0.000000
# 6 0.000000 0.000000 0.000000 0.000000 0.000000 0.053203
#
#
# Mechanical properties :
#
#
# Convention : Reuss Voigt Hill
#
# Bulk Modulus (GPa) = 44.16612 64.80891 54.48751
# Shear Modulus (GPa) = 10.53664 15.29642 12.91653
#
# Velocity S-wave (km/s) = 2.49488 3.00603 2.76231
# Velocity P-wave (km/s) = 5.86430 7.09462 6.50860
#
# Compressibility (1/GPa) = 0.02264179
#
# Stress axis : x y z
#
# Youngs Moduli (GPa) = 19.80318 22.40871 41.10020
#
# Poissons Ratio (x) = 0.37127 0.67654
# Poissons Ratio (y) = 0.32811 0.63198
# Poissons Ratio (z) = 0.32598 0.34457
#
# Static dielectric constant tensor:
#      x y z
#    x 1.577490 0.000000 0.000000 
#    y 0.000000 1.562390 0.000000 
#    z 0.000000 0.000000 1.549220 
# 
# From -- ./inp_files/68101.got.cif
#   From: 2010.05.17/outbox.cif.g08.bks.cpg/sg74_35_cif.got.tgz:68101.got - 2010.06.03 17:57:02.
