data_PCOD9536331
_publ_section_title
;
Structure prediction by ZEFSAII (Michael W. Deem and Ramdas Pophale) SiO2 
 PCOD9536331
Probable space group: I M M A
;
_chemical_formula_sum "Si O2"
_cell_formula_units_Z 96
_cell_length_a 15.669849
_cell_length_b 24.321556
_cell_length_c 13.090832
_cell_angle_alpha 90.000000
_cell_angle_beta 90.000000
_cell_angle_gamma 90.000000
_cell_volume 4989.113877
_symmetry_space_group_name_H-M "I M M A"
_symmetry_group_IT_number 74
_symmetry_cell_setting 'orthorhombic'
loop_
_space_group_symop_operation_xyz
x,y,z
-x,1/2-y,z
x,-y,-z
-x,1/2+y,-z
-x,-y,-z
x,1/2+y,-z
-x,y,z
x,1/2-y,z
1/2+x,1/2+y,1/2+z
1/2-x,-y,1/2+z
1/2+x,1/2-y,1/2-z
1/2-x,y,1/2-z
1/2-x,1/2-y,1/2-z
1/2+x,y,1/2-z
1/2-x,1/2+y,1/2+z
1/2+x,-y,1/2+z
loop_
_atom_site_type_symbol
_atom_site_label
_atom_site_fract_x
_atom_site_fract_y
_atom_site_fract_z
Si Si1 0.395777 0.368095 0.688035
Si Si2 0.601700 0.250000 0.379878
Si Si3 0.896422 0.563635 0.986056
Si Si4 0.895589 0.250000 0.884058
Si Si5 0.895269 0.437848 0.620944
Si Si6 0.845207 0.366960 0.209659
Si Si7 0.900271 0.938524 0.606583
O O1 0.500000 0.367672 0.691013
O O2 0.373050 0.403272 0.588058
O O3 0.367769 0.305606 0.671382
O O4 0.364586 0.397394 0.790720
O O5 0.500000 0.250000 0.385005
O O6 0.632883 0.250000 0.497516
O O7 0.628165 0.305948 0.323723
O O8 0.857502 0.592991 0.887202
O O9 0.000000 0.566265 0.974159
O O10 0.872754 0.500000 0.000000
O O11 0.000000 0.250000 0.885508
O O12 0.866160 0.423128 0.505859
O O13 0.867234 0.501140 0.639372
O O14 0.000000 0.435690 0.625760
O O15 0.750000 0.365397 0.250000
O O16 0.893362 0.393751 0.305640
O O17 0.000000 0.948049 0.588676
#
# Coordination Sequence:
#
# PCOD9536331 Si02
#       7
#    16   8  16   8  16  16  16
#     4   9  15  26  47  78 106 131 176 235 289 328
#     4  11  21  39  62  81 107 150 201 245 291 344
#     4  10  19  33  57  84 110 142 193 252 294 339
#     4   9  16  27  48  77 107 137 170 227 291 331
#     4   8  15  29  54  82 107 138 182 236 283 332
#     4  12  24  37  53  84 120 156 188 238 299 359
#     4   9  17  33  55  78 107 149 191 227 278 344
#
# _framework density 19.241893999999998
#
# number of rings (size 3 to 8) (size 9 to 14) (size 15 to 20)
#    0.000    2.333    1.667    3.750    0.000    2.667 
#    3.000    0.833    0.000    3.000    0.000    1.167 
#    0.000    0.000    0.000    0.000    0.000    0.000 
#
# Total GULP energy -267768.424474 kJ/mol
# GULP energy per Si atom -5578.508843 kJ/mol
# Density = 1.919810 g / cm^3
# Si number density = 19.241894 Si / 1000 Ang^3
#
#
#
# Elastic Constant Matrix: (Units=GPa)
#
#
# Indices 1 2 3 4 5 6 
#
# 1 14.5747 25.0464 21.2197 0.0000 -0.0001 0.0000
# 2 25.0464 189.6116 123.9781 0.0001 0.0011 0.0000
# 3 21.2197 123.9781 178.6729 0.0000 -0.0012 0.0000
# 4 0.0000 0.0001 0.0000 -40.8976 0.0086 0.0000
# 5 -0.0001 0.0011 -0.0012 0.0086 3677.0003 -0.0001
# 6 0.0000 0.0000 0.0000 0.0000 -0.0001 11.8577
#
#
#
# Elastic Compliance Matrix: (Units=1/GPa)
#
#
# Indices 1 2 3 4 5 6 
#
# 1 0.090695 -0.009038 -0.004500 0.000000 0.000000 0.000000
# 2 -0.009038 0.010555 -0.006250 0.000000 0.000000 0.000000
# 3 -0.004500 -0.006250 0.010468 0.000000 0.000000 0.000000
# 4 0.000000 0.000000 0.000000 -0.024451 0.000000 0.000000
# 5 0.000000 0.000000 0.000000 0.000000 0.000272 0.000000
# 6 0.000000 0.000000 0.000000 0.000000 0.000000 0.084333
#
#
# Mechanical properties :
#
#
# Convention : Reuss Voigt Hill
#
# Bulk Modulus (GPa) = 13.86162 80.37195 47.11679
# Shear Modulus (GPa) = 21.23185 743.76642 382.49914
#
# Velocity S-wave (km/s) = 3.32538 19.68182 14.11439
# Velocity P-wave (km/s) = 4.68654 23.62961 17.03412
#
# Compressibility (1/GPa) = 0.07214163
#
# Stress axis : x y z
#
# Youngs Moduli (GPa) = 11.02595 94.74626 95.52752
#
# Poissons Ratio (x) = 0.85630 0.42987
# Poissons Ratio (y) = 0.09965 0.59707
# Poissons Ratio (z) = 0.04962 0.59219
#
# Static dielectric constant tensor:
#      x y z
#    x 1.676180 0.000000 0.000000 
#    y 0.000000 1.631370 0.000000 
#    z 0.000000 0.000000 1.673630 
# 
# From -- ./inp_files/22694.got.cif
#   From: 2010.05.17/outbox.cif.g08.bks.cpg/sg74_12_cif.got.tgz:22694.got - 2010.06.03 17:57:02.
