data_PCOD9536325
_publ_section_title
;
Structure prediction by ZEFSAII (Michael W. Deem and Ramdas Pophale) SiO2 
 PCOD9536325
Probable space group: I M M A
;
_chemical_formula_sum "Si O2"
_cell_formula_units_Z 112
_cell_length_a 14.779614
_cell_length_b 18.955325
_cell_length_c 18.702220
_cell_angle_alpha 90.000000
_cell_angle_beta 90.000000
_cell_angle_gamma 90.000000
_cell_volume 5239.471570
_symmetry_space_group_name_H-M "I M M A"
_symmetry_group_IT_number 74
_symmetry_cell_setting 'orthorhombic'
loop_
_space_group_symop_operation_xyz
x,y,z
-x,1/2-y,z
x,-y,-z
-x,1/2+y,-z
-x,-y,-z
x,1/2+y,-z
-x,y,z
x,1/2-y,z
1/2+x,1/2+y,1/2+z
1/2-x,-y,1/2+z
1/2+x,1/2-y,1/2-z
1/2-x,y,1/2-z
1/2-x,1/2-y,1/2-z
1/2+x,y,1/2-z
1/2-x,1/2+y,1/2+z
1/2+x,-y,1/2+z
loop_
_atom_site_type_symbol
_atom_site_label
_atom_site_fract_x
_atom_site_fract_y
_atom_site_fract_z
Si Si1 0.397693 0.581690 0.693919
Si Si2 0.104862 0.335951 0.484502
Si Si3 0.890323 0.168641 0.902504
Si Si4 0.151464 0.928722 0.229093
Si Si5 0.891873 0.170295 0.638565
Si Si6 0.389593 0.925879 0.534678
Si Si7 0.389015 0.167890 0.171033
O O1 0.500000 0.610465 0.686888
O O2 0.402897 0.498989 0.712250
O O3 0.355637 0.586579 0.615042
O O4 0.357612 0.622582 0.761573
O O5 0.104130 0.250000 0.484431
O O6 0.145657 0.355531 0.561632
O O7 0.143439 0.357340 0.407498
O O8 0.000000 0.360000 0.484492
O O9 0.863936 0.250000 0.896664
O O10 0.848741 0.121451 0.839944
O O11 0.000000 0.164229 0.893821
O O12 0.868074 0.136234 0.979556
O O13 0.250000 0.954806 0.250000
O O14 0.121275 0.881718 0.295923
O O15 0.858264 0.250000 0.654200
O O16 0.000000 0.176149 0.628629
O O17 0.500000 0.930632 0.538963
O O18 0.359103 0.000000 0.500000
O O19 0.500000 0.164718 0.168072
O O20 0.364914 0.250000 0.180195
#
# Coordination Sequence:
#
# PCOD9536325 Si02
#       7
#    16  16  16  16  16  16  16
#     4  10  19  33  57  81 107 141 177 216 268 329
#     4   7  11  23  45  72 101 130 157 195 251 301
#     4  10  20  35  58  86 111 137 177 226 275 329
#     4  12  24  35  49  72 108 150 181 219 261 316
#     4   9  17  31  53  76  99 133 177 219 260 312
#     4   9  16  30  54  79 101 132 172 214 267 326
#     4   8  14  26  49  82 110 129 160 214 269 309
#
# _framework density 21.376203
#
# number of rings (size 3 to 8) (size 9 to 14) (size 15 to 20)
#    0.000    2.714    1.429    3.429    0.000    2.857 
#    0.000    3.571    6.286    3.857    0.000    0.000 
#    0.000    0.000    0.000    0.000    0.000    0.000 
#
# Total GULP energy -312333.746588 kJ/mol
# GULP energy per Si atom -5577.388332 kJ/mol
# Density = 2.132755 g / cm^3
# Si number density = 21.376203 Si / 1000 Ang^3
#
#
#
# Elastic Constant Matrix: (Units=GPa)
#
#
# Indices 1 2 3 4 5 6 
#
# 1 40.6828 -3.6238 1.6675 0.0000 0.0000 0.0000
# 2 -3.6238 66.8127 62.0071 0.0000 0.0000 0.0000
# 3 1.6675 62.0071 226.1122 0.0000 0.0000 0.0000
# 4 0.0000 0.0000 0.0000 20.4376 0.0000 0.0000
# 5 0.0000 0.0000 0.0000 0.0000 -47.7466 0.0000
# 6 0.0000 0.0000 0.0000 0.0000 0.0000 -31.5337
#
#
#
# Elastic Compliance Matrix: (Units=1/GPa)
#
#
# Indices 1 2 3 4 5 6 
#
# 1 0.024792 0.002031 -0.000740 0.000000 0.000000 0.000000
# 2 0.002031 0.020243 -0.005566 0.000000 0.000000 0.000000
# 3 -0.000740 -0.005566 0.005955 0.000000 0.000000 0.000000
# 4 0.000000 0.000000 0.000000 0.048929 0.000000 0.000000
# 5 0.000000 0.000000 0.000000 0.000000 -0.020944 0.000000
# 6 0.000000 0.000000 0.000000 0.000000 0.000000 -0.031712
#
#
# Mechanical properties :
#
#
# Convention : Reuss Voigt Hill
#
# Bulk Modulus (GPa) = 23.56280 50.41213 36.98747
# Shear Modulus (GPa) = 71.47010 6.46859 38.96935
#
# Velocity S-wave (km/s) = 5.78852 1.74145 4.27432
# Velocity P-wave (km/s) = 7.46477 5.26099 6.45759
#
# Compressibility (1/GPa) = 0.04243978
#
# Stress axis : x y z
#
# Youngs Moduli (GPa) = 40.33609 49.39887 167.94001
#
# Poissons Ratio (x) = -0.10035 0.12426
# Poissons Ratio (y) = -0.08194 0.93481
# Poissons Ratio (z) = 0.02984 0.27497
#
# Static dielectric constant tensor:
#      x y z
#    x 1.845920 0.000000 0.000000 
#    y 0.000000 1.724250 0.000000 
#    z 0.000000 0.000000 1.796430 
# 
# From -- ./inp_files/45475.got.cif
#   From: 2010.05.17/outbox.cif.g08.bks.cpg/sg74_23_cif.got.tgz:45475.got - 2010.06.03 17:57:02.
