data_PCOD9536758
_publ_section_title
;
Structure prediction by ZEFSAII (Michael W. Deem and Ramdas Pophale) SiO2 
 PCOD9536758
Probable space group: I M M A
;
_chemical_formula_sum "Si O2"
_cell_formula_units_Z 48
_cell_length_a 16.475867
_cell_length_b 15.465516
_cell_length_c 8.654843
_cell_angle_alpha 90.000000
_cell_angle_beta 90.000000
_cell_angle_gamma 90.000000
_cell_volume 2205.321372
_symmetry_space_group_name_H-M "I M M A"
_symmetry_group_IT_number 74
_symmetry_cell_setting 'orthorhombic'
loop_
_space_group_symop_operation_xyz
x,y,z
-x,1/2-y,z
x,-y,-z
-x,1/2+y,-z
-x,-y,-z
x,1/2+y,-z
-x,y,z
x,1/2-y,z
1/2+x,1/2+y,1/2+z
1/2-x,-y,1/2+z
1/2+x,1/2-y,1/2-z
1/2-x,y,1/2-z
1/2-x,1/2-y,1/2-z
1/2+x,y,1/2-z
1/2-x,1/2+y,1/2+z
1/2+x,-y,1/2+z
loop_
_atom_site_type_symbol
_atom_site_label
_atom_site_fract_x
_atom_site_fract_y
_atom_site_fract_z
Si Si1 0.000000 0.403946 0.072835
Si Si2 0.835800 0.401409 0.938390
Si Si3 0.157583 0.597144 0.431577
Si Si4 0.500000 0.344536 0.102234
O O1 0.000000 0.411468 0.257023
O O2 0.000000 0.500000 0.000000
O O3 0.084171 0.361945 0.016236
O O4 0.846875 0.403960 0.753971
O O5 0.746338 0.364342 0.972970
O O6 0.831348 0.500000 0.000000
O O7 0.154479 0.500000 0.500000
O O8 0.080271 0.644494 0.501236
O O9 0.500000 0.250000 0.176214
#
# Coordination Sequence:
#
# PCOD9536758 Si02
#       4
#     8  16  16   8
#     4  10  19  36  59  83 114 151 193 238 282 342
#     4   9  18  33  60  93 115 141 194 247 285 334
#     4  10  19  36  62  87 115 153 193 239 288 344
#     4  12  26  40  55  85 122 157 195 242 295 346
#
# _framework density 21.765533999999999
#
# number of rings (size 3 to 8) (size 9 to 14) (size 15 to 20)
#    0.000    2.000    0.000    5.500    0.000    4.000 
#    0.000   10.000    0.000    0.000    0.000    0.000 
#    0.000    0.000    0.000    0.000    0.000    0.000 
#
# Total GULP energy -133979.472069 kJ/mol
# GULP energy per Si atom -5582.478003 kJ/mol
# Density = 2.171600 g / cm^3
# Si number density = 21.765534 Si / 1000 Ang^3
#
#
#
# Elastic Constant Matrix: (Units=GPa)
#
#
# Indices 1 2 3 4 5 6 
#
# 1 250.4767 14.2373 78.3131 0.0000 0.0000 0.0000
# 2 14.2373 41.9780 2.4761 0.0000 0.0000 0.0000
# 3 78.3131 2.4761 109.7054 0.0000 0.0000 0.0000
# 4 0.0000 0.0000 0.0000 0.2162 0.0000 0.0000
# 5 0.0000 0.0000 0.0000 0.0000 36.6339 0.0000
# 6 0.0000 0.0000 0.0000 0.0000 0.0000 -35.4057
#
#
#
# Elastic Compliance Matrix: (Units=1/GPa)
#
#
# Indices 1 2 3 4 5 6 
#
# 1 0.005239 -0.001558 -0.003705 0.000000 0.000000 0.000000
# 2 -0.001558 0.024317 0.000564 0.000000 0.000000 0.000000
# 3 -0.003705 0.000564 0.011747 0.000000 0.000000 0.000000
# 4 0.000000 0.000000 0.000000 4.625226 0.000000 0.000000
# 5 0.000000 0.000000 0.000000 0.000000 0.027297 0.000000
# 6 0.000000 0.000000 0.000000 0.000000 0.000000 -0.028244
#
#
# Mechanical properties :
#
#
# Convention : Reuss Voigt Hill
#
# Bulk Modulus (GPa) = 31.34349 65.80146 48.57248
# Shear Modulus (GPa) = 1.06710 20.76445 10.91577
#
# Velocity S-wave (km/s) = 0.70095 3.09205 2.24189
# Velocity P-wave (km/s) = 3.88418 6.56089 5.39130
#
# Compressibility (1/GPa) = 0.03190455
#
# Stress axis : x y z
#
# Youngs Moduli (GPa) = 190.86379 41.12296 85.12554
#
# Poissons Ratio (x) = 0.06409 0.31538
# Poissons Ratio (y) = 0.29745 -0.04798
# Poissons Ratio (z) = 0.70714 -0.02318
#
# Static dielectric constant tensor:
#      x y z
#    x 1.864520 0.000000 0.000000 
#    y 0.000000 1.785810 0.000000 
#    z 0.000000 0.000000 1.739370 
# 
# From -- ./inp_files/8236.got.cif
#   From: 2010.05.17/outbox.cif.g08.bks.cpg/sg74_5_cif.got.tgz:8236.got - 2010.06.03 17:57:02.
