data_PCOD9536644
_publ_section_title
;
Structure prediction by ZEFSAII (Michael W. Deem and Ramdas Pophale) SiO2 
 PCOD9536644
Probable space group: I M M A
;
_chemical_formula_sum "Si O2"
_cell_formula_units_Z 88
_cell_length_a 8.426686
_cell_length_b 23.173355
_cell_length_c 23.297711
_cell_angle_alpha 90.000000
_cell_angle_beta 90.000000
_cell_angle_gamma 90.000000
_cell_volume 4549.450874
_symmetry_space_group_name_H-M "I M M A"
_symmetry_group_IT_number 74
_symmetry_cell_setting 'orthorhombic'
loop_
_space_group_symop_operation_xyz
x,y,z
-x,1/2-y,z
x,-y,-z
-x,1/2+y,-z
-x,-y,-z
x,1/2+y,-z
-x,y,z
x,1/2-y,z
1/2+x,1/2+y,1/2+z
1/2-x,-y,1/2+z
1/2+x,1/2-y,1/2-z
1/2-x,y,1/2-z
1/2-x,1/2-y,1/2-z
1/2+x,y,1/2-z
1/2-x,1/2+y,1/2+z
1/2+x,-y,1/2+z
loop_
_atom_site_type_symbol
_atom_site_label
_atom_site_fract_x
_atom_site_fract_y
_atom_site_fract_z
Si Si1 0.808529 0.812795 0.814680
Si Si2 0.191123 0.081119 0.111203
Si Si3 0.308556 0.434850 0.515402
Si Si4 0.188113 0.480362 0.688985
Si Si5 0.688710 0.750000 0.183870
Si Si6 0.810404 0.630338 0.130754
O O1 0.759067 0.750000 0.837294
O O2 0.750000 0.817497 0.750000
O O3 0.749495 0.866293 0.850747
O O4 0.000000 0.814637 0.815073
O O5 0.000000 0.074782 0.116117
O O6 0.262511 0.022751 0.137257
O O7 0.223764 0.095376 0.045130
O O8 0.251230 0.500000 0.500000
O O9 0.500000 0.440261 0.523735
O O10 0.250987 0.398474 0.570342
O O11 0.250000 0.503930 0.750000
O O12 0.266139 0.418333 0.677331
O O13 0.000000 0.474837 0.690955
O O14 0.500000 0.750000 0.186413
O O15 0.750000 0.750000 0.250000
O O16 0.743802 0.692122 0.150331
O O17 0.000000 0.635974 0.126928
#
# Coordination Sequence:
#
# PCOD9536644 Si02
#       6
#    16  16  16  16   8  16
#     4   9  18  32  51  76 107 144 185 232 284 337
#     4  10  19  35  57  83 115 151 194 244 293 351
#     4   9  17  34  61  89 117 151 190 238 290 348
#     4  12  24  37  56  86 119 154 194 245 304 362
#     4  12  26  46  68  94 128 164 209 260 317 374
#     4  11  22  41  66  92 122 159 204 249 304 366
#
# _framework density 19.342994000000001
#
# number of rings (size 3 to 8) (size 9 to 14) (size 15 to 20)
#    0.000    1.636    1.818    4.091    0.000    2.182 
#    1.636    2.727    0.000    0.000    0.000    0.000 
#    0.000    0.000    0.000    0.000    0.000    0.000 
#
# Total GULP energy -245489.435888 kJ/mol
# GULP energy per Si atom -5579.305361 kJ/mol
# Density = 1.929897 g / cm^3
# Si number density = 19.342994 Si / 1000 Ang^3
#
#
#
# Elastic Constant Matrix: (Units=GPa)
#
#
# Indices 1 2 3 4 5 6 
#
# 1 54.0366 29.4373 24.7477 0.0000 0.0000 0.0000
# 2 29.4373 142.2763 58.1814 0.0000 0.0000 0.0000
# 3 24.7477 58.1814 106.4913 0.0000 0.0000 0.0000
# 4 0.0000 0.0000 0.0000 21.0038 0.0000 0.0000
# 5 0.0000 0.0000 0.0000 0.0000 18.6081 0.0000
# 6 0.0000 0.0000 0.0000 0.0000 0.0000 40.6434
#
#
#
# Elastic Compliance Matrix: (Units=1/GPa)
#
#
# Indices 1 2 3 4 5 6 
#
# 1 0.021743 -0.003132 -0.003342 0.000000 0.000000 0.000000
# 2 -0.003132 0.009502 -0.004463 0.000000 0.000000 0.000000
# 3 -0.003342 -0.004463 0.012606 0.000000 0.000000 0.000000
# 4 0.000000 0.000000 0.000000 0.047611 0.000000 0.000000
# 5 0.000000 0.000000 0.000000 0.000000 0.053740 0.000000
# 6 0.000000 0.000000 0.000000 0.000000 0.000000 0.024604
#
#
# Mechanical properties :
#
#
# Convention : Reuss Voigt Hill
#
# Bulk Modulus (GPa) = 45.50464 58.61524 52.05994
# Shear Modulus (GPa) = 25.12508 28.74692 26.93600
#
# Velocity S-wave (km/s) = 3.60797 3.85927 3.73573
# Velocity P-wave (km/s) = 6.39787 7.08713 6.75130
#
# Compressibility (1/GPa) = 0.02197578
#
# Stress axis : x y z
#
# Youngs Moduli (GPa) = 45.99263 105.24234 79.32983
#
# Poissons Ratio (x) = 0.32963 0.26509
# Poissons Ratio (y) = 0.14405 0.35409
# Poissons Ratio (z) = 0.15369 0.46975
#
# Static dielectric constant tensor:
#      x y z
#    x 1.670090 0.000000 0.000000 
#    y 0.000000 1.688350 0.000000 
#    z 0.000000 0.000000 1.752400 
# 
# From -- ./inp_files/56993.got.cif
#   From: 2010.05.17/outbox.cif.g08.bks.cpg/sg74_29_cif.got.tgz:56993.got - 2010.06.03 17:57:02.
