data_PCOD9536020
_publ_section_title
;
Structure prediction by ZEFSAII (Michael W. Deem and Ramdas Pophale) SiO2 
 PCOD9536020
Probable space group: I M M A
;
_chemical_formula_sum "Si O2"
_cell_formula_units_Z 72
_cell_length_a 15.180675
_cell_length_b 14.331437
_cell_length_c 19.399664
_cell_angle_alpha 90.000000
_cell_angle_beta 90.000000
_cell_angle_gamma 90.000000
_cell_volume 4220.608115
_symmetry_space_group_name_H-M "I M M A"
_symmetry_group_IT_number 74
_symmetry_cell_setting 'orthorhombic'
loop_
_space_group_symop_operation_xyz
x,y,z
-x,1/2-y,z
x,-y,-z
-x,1/2+y,-z
-x,-y,-z
x,1/2+y,-z
-x,y,z
x,1/2-y,z
1/2+x,1/2+y,1/2+z
1/2-x,-y,1/2+z
1/2+x,1/2-y,1/2-z
1/2-x,y,1/2-z
1/2-x,1/2-y,1/2-z
1/2+x,y,1/2-z
1/2-x,1/2+y,1/2+z
1/2+x,-y,1/2+z
loop_
_atom_site_type_symbol
_atom_site_label
_atom_site_fract_x
_atom_site_fract_y
_atom_site_fract_z
Si Si1 0.500000 0.352318 0.335578
Si Si2 0.808810 0.142128 0.185379
Si Si3 0.809301 0.861700 0.316980
Si Si4 0.000000 0.863124 0.260650
Si Si5 0.000000 0.048387 0.892012
Si Si6 0.696246 0.474691 0.577503
O O1 0.500000 0.250000 0.369207
O O2 0.411150 0.360261 0.292672
O O3 0.500000 0.435752 0.389406
O O4 0.788276 0.250000 0.166215
O O5 0.750000 0.115183 0.250000
O O6 0.802486 0.069222 0.123409
O O7 0.807195 0.750000 0.324306
O O8 0.750000 0.885712 0.250000
O O9 0.910121 0.888854 0.300313
O O10 0.764125 0.907829 0.383005
O O11 0.000000 0.911358 0.185719
O O12 0.000000 0.750000 0.251035
O O13 0.903285 0.069772 0.922600
O O14 0.720356 0.500000 0.500000
#
# Coordination Sequence:
#
# PCOD9536020 Si02
#       6
#     8  16  16   8   8  16
#     4   8  16  29  47  72  97 126 164 209 258 298
#     4   9  18  33  52  72  98 133 176 217 253 301
#     4  10  20  36  58  81 107 142 186 233 276 321
#     4  10  20  35  58  85 106 135 187 241 277 313
#     4  10  19  32  54  77 110 143 175 222 273 321
#     4  11  22  34  51  80 115 147 176 215 273 338
#
# _framework density 17.059153999999999
#
# number of rings (size 3 to 8) (size 9 to 14) (size 15 to 20)
#    0.000    2.222    2.222    1.000    3.111    0.889 
#    0.000    0.556    0.000    4.000    0.000    4.667 
#    0.000    0.000    0.000    0.000    0.000    0.000 
#
# Total GULP energy -200526.327151 kJ/mol
# GULP energy per Si atom -5570.175754 kJ/mol
# Density = 1.702033 g / cm^3
# Si number density = 17.059154 Si / 1000 Ang^3
#
#
#
# Elastic Constant Matrix: (Units=GPa)
#
#
# Indices 1 2 3 4 5 6 
#
# 1 123.0427 34.2036 60.9891 0.0000 0.0000 0.0000
# 2 34.2036 50.8760 29.7236 0.0000 0.0000 0.0000
# 3 60.9891 29.7236 115.7404 0.0000 0.0000 0.0000
# 4 0.0000 0.0000 0.0000 0.8430 0.0000 0.0000
# 5 0.0000 0.0000 0.0000 0.0000 18.3032 0.0000
# 6 0.0000 0.0000 0.0000 0.0000 0.0000 17.4763
#
#
#
# Elastic Compliance Matrix: (Units=1/GPa)
#
#
# Indices 1 2 3 4 5 6 
#
# 1 0.012055 -0.005169 -0.005025 0.000000 0.000000 0.000000
# 2 -0.005169 0.025341 -0.003784 0.000000 0.000000 0.000000
# 3 -0.005025 -0.003784 0.012260 0.000000 0.000000 0.000000
# 4 0.000000 0.000000 0.000000 1.186242 0.000000 0.000000
# 5 0.000000 0.000000 0.000000 0.000000 0.054635 0.000000
# 6 0.000000 0.000000 0.000000 0.000000 0.000000 0.057220
#
#
# Mechanical properties :
#
#
# Convention : Reuss Voigt Hill
#
# Bulk Modulus (GPa) = 46.08258 59.94351 53.01305
# Shear Modulus (GPa) = 3.61548 18.30736 10.96142
#
# Velocity S-wave (km/s) = 1.45739 3.27948 2.53761
# Velocity P-wave (km/s) = 5.46846 7.03952 6.30313
#
# Compressibility (1/GPa) = 0.02170017
#
# Stress axis : x y z
#
# Youngs Moduli (GPa) = 82.95504 39.46104 81.56790
#
# Poissons Ratio (x) = 0.20396 0.40987
# Poissons Ratio (y) = 0.42876 0.30869
# Poissons Ratio (z) = 0.41684 0.14934
#
# Static dielectric constant tensor:
#      x y z
#    x 1.610040 0.000000 0.000000 
#    y 0.000000 1.624260 0.000000 
#    z 0.000000 0.000000 1.526340 
# 
# From -- ./inp_files/31943.got.cif
#   From: 2010.05.17/outbox.cif.g08.bks.cpg/sg74_16_cif.got.tgz:31943.got - 2010.06.03 17:57:02.
