data_PCOD9536705
_publ_section_title
;
Structure prediction by ZEFSAII (Michael W. Deem and Ramdas Pophale) SiO2 
 PCOD9536705
Probable space group: I M M A
;
_chemical_formula_sum "Si O2"
_cell_formula_units_Z 72
_cell_length_a 14.263367
_cell_length_b 16.239408
_cell_length_c 17.646211
_cell_angle_alpha 90.000000
_cell_angle_beta 90.000000
_cell_angle_gamma 90.000000
_cell_volume 4087.367787
_symmetry_space_group_name_H-M "I M M A"
_symmetry_group_IT_number 74
_symmetry_cell_setting 'orthorhombic'
loop_
_space_group_symop_operation_xyz
x,y,z
-x,1/2-y,z
x,-y,-z
-x,1/2+y,-z
-x,-y,-z
x,1/2+y,-z
-x,y,z
x,1/2-y,z
1/2+x,1/2+y,1/2+z
1/2-x,-y,1/2+z
1/2+x,1/2-y,1/2-z
1/2-x,y,1/2-z
1/2-x,1/2-y,1/2-z
1/2+x,y,1/2-z
1/2-x,1/2+y,1/2+z
1/2+x,-y,1/2+z
loop_
_atom_site_type_symbol
_atom_site_label
_atom_site_fract_x
_atom_site_fract_y
_atom_site_fract_z
Si Si1 0.164798 0.576705 0.046722
Si Si2 0.697153 0.040837 0.321962
Si Si3 0.500000 0.844919 0.360402
Si Si4 0.695156 0.152897 0.075175
Si Si5 0.000000 0.003060 0.243601
Si Si6 0.500000 0.447217 0.079016
O O1 0.214072 0.525926 0.113028
O O2 0.089017 0.634409 0.086298
O O3 0.119063 0.500000 0.000000
O O4 0.239573 0.623201 0.994853
O O5 0.750000 0.008289 0.250000
O O6 0.744486 0.123926 0.351919
O O7 0.590065 0.045501 0.295661
O O8 0.500000 0.750000 0.336902
O O9 0.500000 0.909573 0.290259
O O10 0.681416 0.250000 0.073055
O O11 0.595458 0.106520 0.076402
O O12 0.000000 0.010234 0.335774
O O13 0.500000 0.500000 0.000000
#
# Coordination Sequence:
#
# PCOD9536705 Si02
#       6
#    16  16   8  16   8   8
#     4   9  19  35  59  86 116 153 191 230 280 359
#     4  10  19  37  60  84 111 156 195 231 279 345
#     4  10  19  35  61  89 121 146 180 246 301 332
#     4  11  23  38  58  89 119 147 191 243 293 336
#     4  10  22  38  61  87 114 146 204 231 282 349
#     4  12  23  41  63  80 110 166 199 234 274 350
#
# _framework density 17.61525
#
# number of rings (size 3 to 8) (size 9 to 14) (size 15 to 20)
#    0.000    1.778    2.222    3.333    0.000    3.111 
#    0.000    2.778    0.000    3.333    0.000    0.000 
#    0.000    0.000    0.000    0.000    0.000    0.000 
#
# Total GULP energy -200482.361585 kJ/mol
# GULP energy per Si atom -5568.954488 kJ/mol
# Density = 1.757516 g / cm^3
# Si number density = 17.615250 Si / 1000 Ang^3
#
#
#
# Elastic Constant Matrix: (Units=GPa)
#
#
# Indices 1 2 3 4 5 6 
#
# 1 105.4205 63.2376 17.6396 0.0000 0.0000 0.0000
# 2 63.2376 120.8753 57.7204 0.0000 0.0000 0.0000
# 3 17.6396 57.7204 100.3943 0.0000 0.0000 0.0000
# 4 0.0000 0.0000 0.0000 9.3769 0.0000 0.0000
# 5 0.0000 0.0000 0.0000 0.0000 7.2017 0.0000
# 6 0.0000 0.0000 0.0000 0.0000 0.0000 20.4744
#
#
#
# Elastic Compliance Matrix: (Units=1/GPa)
#
#
# Indices 1 2 3 4 5 6 
#
# 1 0.014251 -0.008629 0.002457 0.000000 0.000000 0.000000
# 2 -0.008629 0.016629 -0.008044 0.000000 0.000000 0.000000
# 3 0.002457 -0.008044 0.014154 0.000000 0.000000 0.000000
# 4 0.000000 0.000000 0.000000 0.106645 0.000000 0.000000
# 5 0.000000 0.000000 0.000000 0.000000 0.138855 0.000000
# 6 0.000000 0.000000 0.000000 0.000000 0.000000 0.048841
#
#
# Mechanical properties :
#
#
# Convention : Reuss Voigt Hill
#
# Bulk Modulus (GPa) = 60.23601 67.09836 63.66719
# Shear Modulus (GPa) = 13.39258 19.95011 16.67134
#
# Velocity S-wave (km/s) = 2.76031 3.36899 3.07972
# Velocity P-wave (km/s) = 6.66549 7.30118 6.99056
#
# Compressibility (1/GPa) = 0.01660136
#
# Stress axis : x y z
#
# Youngs Moduli (GPa) = 70.17157 60.13741 70.65168
#
# Poissons Ratio (x) = 0.51892 -0.17360
# Poissons Ratio (y) = 0.60550 0.56834
# Poissons Ratio (z) = -0.17242 0.48376
#
# Static dielectric constant tensor:
#      x y z
#    x 1.284630 0.000000 0.000000 
#    y 0.000000 1.585390 0.000000 
#    z 0.000000 0.000000 1.657020 
# 
# From -- ./inp_files/42531.got.cif
#   From: 2010.05.17/outbox.cif.g08.bks.cpg/sg74_22_cif.got.tgz:42531.got - 2010.06.03 17:57:02.
