data_PCOD9537880
_publ_section_title
;
Structure prediction by ZEFSAII (Michael W. Deem and Ramdas Pophale) SiO2 
 PCOD9537880
Probable space group: I M M A
;
_chemical_formula_sum "Si O2"
_cell_formula_units_Z 112
_cell_length_a 20.305436
_cell_length_b 14.412354
_cell_length_c 17.660961
_cell_angle_alpha 90.000000
_cell_angle_beta 90.000000
_cell_angle_gamma 90.000000
_cell_volume 5168.464903
_symmetry_space_group_name_H-M "I M M A"
_symmetry_group_IT_number 74
_symmetry_cell_setting 'orthorhombic'
loop_
_space_group_symop_operation_xyz
x,y,z
-x,1/2-y,z
x,-y,-z
-x,1/2+y,-z
-x,-y,-z
x,1/2+y,-z
-x,y,z
x,1/2-y,z
1/2+x,1/2+y,1/2+z
1/2-x,-y,1/2+z
1/2+x,1/2-y,1/2-z
1/2-x,y,1/2-z
1/2-x,1/2-y,1/2-z
1/2+x,y,1/2-z
1/2-x,1/2+y,1/2+z
1/2+x,-y,1/2+z
loop_
_atom_site_type_symbol
_atom_site_label
_atom_site_fract_x
_atom_site_fract_y
_atom_site_fract_z
Si Si1 0.579337 0.644563 0.646008
Si Si2 0.929750 0.893664 0.530902
Si Si3 0.925188 0.136978 0.981183
Si Si4 0.213210 0.891108 0.521805
Si Si5 0.694962 0.353286 0.611146
Si Si6 0.220221 0.019651 0.325795
Si Si7 0.925191 0.962907 0.697455
O O1 0.500000 0.650488 0.636853
O O2 0.604432 0.750000 0.655145
O O3 0.600906 0.605274 0.563913
O O4 0.588481 0.587837 0.722937
O O5 0.859992 0.853805 0.505935
O O6 0.928963 0.897841 0.622585
O O7 0.000000 0.853685 0.506332
O O8 0.929921 0.000000 0.500000
O O9 0.925781 0.250000 0.985768
O O10 0.000000 0.105403 0.968908
O O11 0.877984 0.114310 0.911569
O O12 0.267848 0.847074 0.469790
O O13 0.212378 0.000000 0.500000
O O14 0.224985 0.900579 0.610710
O O15 0.693783 0.250000 0.645366
O O16 0.734670 0.430881 0.655648
O O17 0.250000 0.060117 0.250000
O O18 0.144055 0.985444 0.319069
O O19 0.000000 0.005125 0.701579
#
# Coordination Sequence:
#
# PCOD9537880 Si02
#       7
#    16  16  16  16  16  16  16
#     4   8  14  26  47  78 112 142 175 217 267 326
#     4   8  13  24  43  64  87 123 172 214 248 295
#     4   8  15  29  51  78 105 136 175 218 267 324
#     4   8  16  31  49  70  97 130 167 211 266 317
#     4  10  20  35  56  76 101 141 181 222 273 327
#     4  10  21  35  52  76 107 142 179 225 270 321
#     4   9  17  30  51  75 104 145 182 215 268 331
#
# _framework density 21.669877
#
# number of rings (size 3 to 8) (size 9 to 14) (size 15 to 20)
#    0.000    3.286    0.000    1.714    2.000    0.286 
#    0.000    3.571    0.000    7.286    0.000    0.000 
#    0.000    0.000    0.000    0.000    0.000    0.000 
#
# Total GULP energy -311796.794717 kJ/mol
# GULP energy per Si atom -5567.799906 kJ/mol
# Density = 2.162056 g / cm^3
# Si number density = 21.669877 Si / 1000 Ang^3
#
#
#
# Elastic Constant Matrix: (Units=GPa)
#
#
# Indices 1 2 3 4 5 6 
#
# 1 96.6255 -1.6360 7.5182 0.0000 0.0000 0.0000
# 2 -1.6360 47.3791 -19.8162 0.0000 0.0000 0.0000
# 3 7.5182 -19.8162 38.5199 0.0000 0.0000 0.0000
# 4 0.0000 0.0000 0.0000 -0.7967 0.0000 0.0000
# 5 0.0000 0.0000 0.0000 0.0000 32.8672 0.0000
# 6 0.0000 0.0000 0.0000 0.0000 0.0000 -76.1161
#
#
#
# Elastic Compliance Matrix: (Units=1/GPa)
#
#
# Indices 1 2 3 4 5 6 
#
# 1 0.010524 -0.000632 -0.002379 0.000000 0.000000 0.000000
# 2 -0.000632 0.026931 0.013977 0.000000 0.000000 0.000000
# 3 -0.002379 0.013977 0.033615 0.000000 0.000000 0.000000
# 4 0.000000 0.000000 0.000000 -1.255147 0.000000 0.000000
# 5 0.000000 0.000000 0.000000 0.000000 0.030426 0.000000
# 6 0.000000 0.000000 0.000000 0.000000 0.000000 -0.013138
#
#
# Mechanical properties :
#
#
# Convention : Reuss Voigt Hill
#
# Bulk Modulus (GPa) = 10.75225 17.18405 13.96815
# Shear Modulus (GPa) = -4.31882 4.28811 -0.01536
#
# Velocity S-wave (km/s) = -1.41327 1.40824 -0.08428
# Velocity P-wave (km/s) = 1.51970 3.25443 2.53976
#
# Compressibility (1/GPa) = 0.09300377
#
# Stress axis : x y z
#
# Youngs Moduli (GPa) = 95.02417 37.13246 29.74821
#
# Poissons Ratio (x) = 0.02345 0.07077
# Poissons Ratio (y) = 0.06002 -0.41581
# Poissons Ratio (z) = 0.22605 -0.51902
#
# Static dielectric constant tensor:
#      x y z
#    x 1.854190 0.000000 0.000000 
#    y 0.000000 1.821800 0.000000 
#    z 0.000000 0.000000 1.844480 
# 
# From -- ./inp_files/45452.got.cif
#   From: 2010.05.17/outbox.cif.g08.bks.cpg/sg74_23_cif.got.tgz:45452.got - 2010.06.03 17:57:02.
