data_PCOD9537153
_publ_section_title
;
Structure prediction by ZEFSAII (Michael W. Deem and Ramdas Pophale) SiO2 
 PCOD9537153
Probable space group: I M M A
;
_chemical_formula_sum "Si O2"
_cell_formula_units_Z 52
_cell_length_a 8.139485
_cell_length_b 14.218275
_cell_length_c 17.566201
_cell_angle_alpha 90.000000
_cell_angle_beta 90.000000
_cell_angle_gamma 90.000000
_cell_volume 2032.926536
_symmetry_space_group_name_H-M "I M M A"
_symmetry_group_IT_number 74
_symmetry_cell_setting 'orthorhombic'
loop_
_space_group_symop_operation_xyz
x,y,z
-x,1/2-y,z
x,-y,-z
-x,1/2+y,-z
-x,-y,-z
x,1/2+y,-z
-x,y,z
x,1/2-y,z
1/2+x,1/2+y,1/2+z
1/2-x,-y,1/2+z
1/2+x,1/2-y,1/2-z
1/2-x,y,1/2-z
1/2-x,1/2-y,1/2-z
1/2+x,y,1/2-z
1/2-x,1/2+y,1/2+z
1/2+x,-y,1/2+z
loop_
_atom_site_type_symbol
_atom_site_label
_atom_site_fract_x
_atom_site_fract_y
_atom_site_fract_z
Si Si1 0.500000 0.750000 0.193518
Si Si2 0.184426 0.377165 0.848235
Si Si3 0.317979 0.386595 0.005252
Si Si4 0.688202 0.103637 0.332652
O O1 0.348816 0.669883 0.184415
O O2 0.196058 0.489212 0.835347
O O3 0.000000 0.346231 0.823377
O O4 0.195637 0.357355 0.938910
O O5 0.500000 0.353971 0.984224
O O6 0.280597 0.361761 0.092064
O O7 0.317658 0.500000 0.000000
O O8 0.500000 0.130759 0.341167
O O9 0.750000 0.133783 0.250000
#
# Coordination Sequence:
#
# PCOD9537153 Si02
#       4
#     4  16  16  16
#     4  12  22  36  56  74 100 156 186 226 248 302
#     4  10  21  36  54  77 108 139 185 224 262 309
#     4   9  16  30  53  79 103 134 166 220 279 322
#     4  10  20  32  53  79 110 140 171 218 278 329
#
# _framework density 25.578887999999999
#
# number of rings (size 3 to 8) (size 9 to 14) (size 15 to 20)
#    0.000    2.154    1.538    2.308    4.308    3.692 
#    0.000    0.769    0.000    0.000    0.000    1.077 
#    0.000    0.000    0.000    0.000    0.000    0.000 
#
# Total GULP energy -145011.269608 kJ/mol
# GULP energy per Si atom -5577.356523 kJ/mol
# Density = 2.552067 g / cm^3
# Si number density = 25.578888 Si / 1000 Ang^3
#
#
#
# Elastic Constant Matrix: (Units=GPa)
#
#
# Indices 1 2 3 4 5 6 
#
# 1 243.5404 21.5839 82.2503 0.0000 0.0000 0.0000
# 2 21.5839 122.7319 -16.3433 0.0000 0.0000 0.0001
# 3 82.2503 -16.3433 212.0320 0.0000 0.0000 0.0001
# 4 0.0000 0.0000 0.0000 -89.7316 0.0000 0.0001
# 5 0.0000 0.0000 0.0000 0.0000 63.8503 0.0000
# 6 0.0000 0.0001 0.0001 0.0001 0.0000 2824.6884
#
#
#
# Elastic Compliance Matrix: (Units=1/GPa)
#
#
# Indices 1 2 3 4 5 6 
#
# 1 0.004873 -0.001120 -0.001977 0.000000 0.000000 0.000000
# 2 -0.001120 0.008490 0.001089 0.000000 0.000000 0.000000
# 3 -0.001977 0.001089 0.005567 0.000000 0.000000 0.000000
# 4 0.000000 0.000000 0.000000 -0.011144 0.000000 0.000000
# 5 0.000000 0.000000 0.000000 0.000000 0.015662 0.000000
# 6 0.000000 0.000000 0.000000 0.000000 0.000000 0.000354
#
#
# Mechanical properties :
#
#
# Convention : Reuss Voigt Hill
#
# Bulk Modulus (GPa) = 67.05118 83.69847 75.37483
# Shear Modulus (GPa) = 152.49429 592.48233 372.48831
#
# Velocity S-wave (km/s) = 7.72960 15.23589 12.08054
# Velocity P-wave (km/s) = 10.29236 18.50142 14.97056
#
# Compressibility (1/GPa) = 0.01491398
#
# Stress axis : x y z
#
# Youngs Moduli (GPa) = 205.21532 117.78788 179.63117
#
# Poissons Ratio (x) = 0.13194 0.35506
# Poissons Ratio (y) = 0.22988 -0.19560
# Poissons Ratio (z) = 0.40563 -0.12826
#
# Static dielectric constant tensor:
#      x y z
#    x 1.897420 0.000000 0.000000 
#    y 0.000000 2.005180 0.000000 
#    z 0.000000 0.000000 2.155000 
# 
# From -- ./inp_files/28396.got.cif
#   From: 2010.05.17/outbox.cif.g08.bks.cpg/sg74_15_cif.got.tgz:28396.got - 2010.06.03 17:57:02.
