data_PCOD9537367
_publ_section_title
;
Structure prediction by ZEFSAII (Michael W. Deem and Ramdas Pophale) SiO2 
 PCOD9537367
Probable space group: I M M A
;
_chemical_formula_sum "Si O2"
_cell_formula_units_Z 96
_cell_length_a 15.292622
_cell_length_b 13.944527
_cell_length_c 21.086201
_cell_angle_alpha 90.000000
_cell_angle_beta 90.000000
_cell_angle_gamma 90.000000
_cell_volume 4496.598212
_symmetry_space_group_name_H-M "I M M A"
_symmetry_group_IT_number 74
_symmetry_cell_setting 'orthorhombic'
loop_
_space_group_symop_operation_xyz
x,y,z
-x,1/2-y,z
x,-y,-z
-x,1/2+y,-z
-x,-y,-z
x,1/2+y,-z
-x,y,z
x,1/2-y,z
1/2+x,1/2+y,1/2+z
1/2-x,-y,1/2+z
1/2+x,1/2-y,1/2-z
1/2-x,y,1/2-z
1/2-x,1/2-y,1/2-z
1/2+x,y,1/2-z
1/2-x,1/2+y,1/2+z
1/2+x,-y,1/2+z
loop_
_atom_site_type_symbol
_atom_site_label
_atom_site_fract_x
_atom_site_fract_y
_atom_site_fract_z
Si Si1 0.311838 0.855104 0.382670
Si Si2 0.899617 0.547799 0.666059
Si Si3 0.733386 0.433179 0.401396
Si Si4 0.906387 0.614337 0.996988
Si Si5 0.096978 0.863098 0.802262
Si Si6 0.895762 0.140449 0.744317
O O1 0.267943 0.750000 0.386230
O O2 0.392493 0.850284 0.431982
O O3 0.344338 0.869566 0.310620
O O4 0.266340 0.951107 0.409319
O O5 0.832991 0.588879 0.614605
O O6 0.895530 0.614612 0.728121
O O7 0.872483 0.442519 0.694065
O O8 0.000000 0.541712 0.644633
O O9 0.680252 0.373040 0.454188
O O10 0.673512 0.414340 0.339850
O O11 0.000000 0.647748 0.970602
O O12 0.911933 0.500000 0.000000
O O13 0.101822 0.750000 0.813505
O O14 0.000000 0.898569 0.822042
O O15 0.881287 0.250000 0.722122
O O16 0.000000 0.129197 0.756634
#
# Coordination Sequence:
#
# PCOD9537367 Si02
#       6
#    16  16  16  16  16  16
#     4  10  20  33  54  84 117 151 185 223 278 344
#     4  10  21  36  54  79 113 150 192 236 280 329
#     4  11  21  35  56  81 112 151 188 233 279 332
#     4   9  19  34  52  75 107 144 180 221 272 331
#     4  10  21  36  54  77 107 143 182 228 283 340
#     4   9  17  30  51  81 117 153 186 222 270 335
#
# _framework density 21.349473
#
# number of rings (size 3 to 8) (size 9 to 14) (size 15 to 20)
#    0.000    2.167    1.667    1.500    0.000    5.000 
#    0.000    1.667    0.000    4.500    0.000    0.000 
#    0.000    0.000    0.000    0.000    0.000    0.000 
#
# Total GULP energy -267640.168380 kJ/mol
# GULP energy per Si atom -5575.836841 kJ/mol
# Density = 2.130088 g / cm^3
# Si number density = 21.349473 Si / 1000 Ang^3
#
#
#
# Elastic Constant Matrix: (Units=GPa)
#
#
# Indices 1 2 3 4 5 6 
#
# 1 108.4586 5.0000 49.3901 0.0000 0.0000 0.0000
# 2 5.0000 84.4465 -5.5189 0.0000 0.0000 0.0000
# 3 49.3901 -5.5189 51.1670 0.0000 0.0000 0.0000
# 4 0.0000 0.0000 0.0000 -24.0943 0.0000 0.0000
# 5 0.0000 0.0000 0.0000 0.0000 32.1252 0.0000
# 6 0.0000 0.0000 0.0000 0.0000 0.0000 -2.3487
#
#
#
# Elastic Compliance Matrix: (Units=1/GPa)
#
#
# Indices 1 2 3 4 5 6 
#
# 1 0.016803 -0.002070 -0.016443 0.000000 0.000000 0.000000
# 2 -0.002070 0.012181 0.003312 0.000000 0.000000 0.000000
# 3 -0.016443 0.003312 0.035773 0.000000 0.000000 0.000000
# 4 0.000000 0.000000 0.000000 -0.041504 0.000000 0.000000
# 5 0.000000 0.000000 0.000000 0.000000 0.031128 0.000000
# 6 0.000000 0.000000 0.000000 0.000000 0.000000 -0.425763
#
#
# Mechanical properties :
#
#
# Convention : Reuss Voigt Hill
#
# Bulk Modulus (GPa) = 29.10783 37.97938 33.54361
# Shear Modulus (GPa) = -15.17328 14.14983 -0.51172
#
# Velocity S-wave (km/s) = -2.66881 2.57723 -0.49011
# Velocity P-wave (km/s) = 2.04129 5.16567 3.92753
#
# Compressibility (1/GPa) = 0.03435501
#
# Stress axis : x y z
#
# Youngs Moduli (GPa) = 59.51170 82.09658 27.95396
#
# Poissons Ratio (x) = 0.16990 0.45965
# Poissons Ratio (y) = 0.12316 -0.09257
# Poissons Ratio (z) = 0.97856 -0.27186
#
# Static dielectric constant tensor:
#      x y z
#    x 1.808340 0.000000 0.000000 
#    y 0.000000 1.846370 0.000000 
#    z 0.000000 0.000000 1.790210 
# 
# From -- ./inp_files/51867.got.cif
#   From: 2010.05.17/outbox.cif.g08.bks.cpg/sg74_26_cif.got.tgz:51867.got - 2010.06.03 17:57:02.
