data_PCOD9537365
_publ_section_title
;
Structure prediction by ZEFSAII (Michael W. Deem and Ramdas Pophale) SiO2 
 PCOD9537365
Probable space group: I M M A
;
_chemical_formula_sum "Si O2"
_cell_formula_units_Z 116
_cell_length_a 16.868944
_cell_length_b 18.354828
_cell_length_c 18.789077
_cell_angle_alpha 90.000000
_cell_angle_beta 90.000000
_cell_angle_gamma 90.000000
_cell_volume 5817.597383
_symmetry_space_group_name_H-M "I M M A"
_symmetry_group_IT_number 74
_symmetry_cell_setting 'orthorhombic'
loop_
_space_group_symop_operation_xyz
x,y,z
-x,1/2-y,z
x,-y,-z
-x,1/2+y,-z
-x,-y,-z
x,1/2+y,-z
-x,y,z
x,1/2-y,z
1/2+x,1/2+y,1/2+z
1/2-x,-y,1/2+z
1/2+x,1/2-y,1/2-z
1/2-x,y,1/2-z
1/2-x,1/2-y,1/2-z
1/2+x,y,1/2-z
1/2-x,1/2+y,1/2+z
1/2+x,-y,1/2+z
loop_
_atom_site_type_symbol
_atom_site_label
_atom_site_fract_x
_atom_site_fract_y
_atom_site_fract_z
Si Si1 0.835126 0.986076 0.712927
Si Si2 0.320905 0.832621 0.844746
Si Si3 0.000000 0.250000 0.153039
Si Si4 0.863422 0.365389 0.119838
Si Si5 0.411886 0.462532 0.923839
Si Si6 0.818110 0.084428 0.973699
Si Si7 0.652384 0.165142 0.991640
Si Si8 0.408479 0.469454 0.655759
O O1 0.750000 0.995889 0.750000
O O2 0.848610 0.898676 0.705309
O O3 0.845774 0.013830 0.632554
O O4 0.893909 0.034895 0.760198
O O5 0.335561 0.750000 0.818893
O O6 0.226158 0.842602 0.858233
O O7 0.360476 0.841128 0.922916
O O8 0.069900 0.187083 0.149046
O O9 0.878970 0.447950 0.143251
O O10 0.866853 0.371124 0.033621
O O11 0.500000 0.484853 0.899029
O O12 0.409426 0.377613 0.943348
O O13 0.397113 0.500000 0.000000
O O14 0.733788 0.123151 0.974875
O O15 0.858115 0.081148 0.896597
O O16 0.812026 0.000000 0.000000
O O17 0.658518 0.250000 0.975975
O O18 0.500000 0.462860 0.636904
#
# Coordination Sequence:
#
# PCOD9537365 Si02
#       8
#    16  16   4  16  16  16  16  16
#     4  12  23  38  62  89 118 163 211 252 304 372
#     4  10  20  37  55  85 121 158 203 247 295 355
#     4  12  20  32  54  86 136 160 216 238 310 372
#     4  10  20  33  54  83 116 165 201 243 291 364
#     4  11  23  41  66  92 123 164 211 262 315 368
#     4   9  20  35  59  84 117 160 207 247 297 352
#     4  10  20  37  64  93 120 149 200 260 306 360
#     4  11  22  37  53  82 119 157 205 252 298 358
#
# _framework density 19.939502999999998
#
# number of rings (size 3 to 8) (size 9 to 14) (size 15 to 20)
#    0.000    1.517    4.138    1.655    3.862    1.379 
#    1.241    0.000    0.000    4.966    0.000    0.000 
#    0.000    0.000    0.000    0.000    0.000    0.000 
#
# Total GULP energy -323235.603623 kJ/mol
# GULP energy per Si atom -5573.027649 kJ/mol
# Density = 1.989412 g / cm^3
# Si number density = 19.939503 Si / 1000 Ang^3
#
#
#
# Elastic Constant Matrix: (Units=GPa)
#
#
# Indices 1 2 3 4 5 6 
#
# 1 47.8955 8.3026 19.5712 0.0000 0.0000 0.0000
# 2 8.3026 52.4922 20.1672 0.0000 0.0000 0.0000
# 3 19.5712 20.1672 90.1623 0.0000 0.0000 0.0000
# 4 0.0000 0.0000 0.0000 18.6692 0.0000 0.0000
# 5 0.0000 0.0000 0.0000 0.0000 13.2831 0.0000
# 6 0.0000 0.0000 0.0000 0.0000 0.0000 26.9337
#
#
#
# Elastic Compliance Matrix: (Units=1/GPa)
#
#
# Indices 1 2 3 4 5 6 
#
# 1 0.023081 -0.001888 -0.004588 0.000000 0.000000 0.000000
# 2 -0.001888 0.020996 -0.004286 0.000000 0.000000 0.000000
# 3 -0.004588 -0.004286 0.013046 0.000000 0.000000 0.000000
# 4 0.000000 0.000000 0.000000 0.053564 0.000000 0.000000
# 5 0.000000 0.000000 0.000000 0.000000 0.075283 0.000000
# 6 0.000000 0.000000 0.000000 0.000000 0.000000 0.037128
#
#
# Mechanical properties :
#
#
# Convention : Reuss Voigt Hill
#
# Bulk Modulus (GPa) = 28.09159 31.84801 29.96980
# Shear Modulus (GPa) = 19.49402 21.27778 20.38590
#
# Velocity S-wave (km/s) = 3.13014 3.27022 3.20095
# Velocity P-wave (km/s) = 5.21371 5.50146 5.35952
#
# Compressibility (1/GPa) = 0.03559785
#
# Stress axis : x y z
#
# Youngs Moduli (GPa) = 43.32619 47.62826 76.65336
#
# Poissons Ratio (x) = 0.08993 0.35167
# Poissons Ratio (y) = 0.08180 0.32857
# Poissons Ratio (z) = 0.19877 0.20416
#
# Static dielectric constant tensor:
#      x y z
#    x 1.720420 0.000000 0.000000 
#    y 0.000000 1.694280 0.000000 
#    z 0.000000 0.000000 1.805800 
# 
# From -- ./inp_files/44242.got.cif
#   From: 2010.05.17/outbox.cif.g08.bks.cpg/sg74_23_cif.got.tgz:44242.got - 2010.06.03 17:57:02.
