data_PCOD9537924
_publ_section_title
;
Structure prediction by ZEFSAII (Michael W. Deem and Ramdas Pophale) SiO2 
 PCOD9537924
Probable space group: I M M A
;
_chemical_formula_sum "Si O2"
_cell_formula_units_Z 72
_cell_length_a 10.302072
_cell_length_b 15.358909
_cell_length_c 25.101931
_cell_angle_alpha 90.000000
_cell_angle_beta 90.000000
_cell_angle_gamma 90.000000
_cell_volume 3971.843057
_symmetry_space_group_name_H-M "I M M A"
_symmetry_group_IT_number 74
_symmetry_cell_setting 'orthorhombic'
loop_
_space_group_symop_operation_xyz
x,y,z
-x,1/2-y,z
x,-y,-z
-x,1/2+y,-z
-x,-y,-z
x,1/2+y,-z
-x,y,z
x,1/2-y,z
1/2+x,1/2+y,1/2+z
1/2-x,-y,1/2+z
1/2+x,1/2-y,1/2-z
1/2-x,y,1/2-z
1/2-x,1/2-y,1/2-z
1/2+x,y,1/2-z
1/2-x,1/2+y,1/2+z
1/2+x,-y,1/2+z
loop_
_atom_site_type_symbol
_atom_site_label
_atom_site_fract_x
_atom_site_fract_y
_atom_site_fract_z
Si Si1 0.749207 0.095366 0.187210
Si Si2 0.255248 0.415836 0.622197
Si Si3 0.836568 0.250000 0.805511
Si Si4 0.500000 0.475688 0.937002
Si Si5 0.000000 0.656054 0.870326
Si Si6 0.500000 0.844888 0.871866
Si Si7 0.500000 0.481911 0.561747
O O1 0.750000 0.088622 0.250000
O O2 0.875044 0.144503 0.166228
O O3 0.624853 0.144850 0.165100
O O4 0.749146 0.999153 0.161429
O O5 0.289622 0.333112 0.659229
O O6 0.374307 0.431079 0.582158
O O7 0.124724 0.423034 0.586283
O O8 0.750000 0.250000 0.750000
O O9 0.000000 0.250000 0.798648
O O10 0.500000 0.571770 0.910291
O O11 0.500000 0.500000 0.000000
O O12 0.000000 0.750000 0.897120
O O13 0.000000 0.576243 0.910628
O O14 0.500000 0.750000 0.898607
O O15 0.500000 0.500000 0.500000
#
# Coordination Sequence:
#
# PCOD9537924 Si02
#       7
#    16  16   8   8   8   8   8
#     4  10  20  35  56  81 115 158 191 233 302 366
#     4  10  22  41  62  91 127 160 215 265 316 395
#     4  12  26  44  68 100 138 174 218 282 341 402
#     4  10  22  42  66  89 123 169 211 262 326 381
#     4  10  21  34  51  83 115 140 193 247 285 364
#     4  10  21  36  55  83 119 150 195 249 293 366
#     4  10  20  40  64  81 119 165 205 262 322 377
#
# _framework density 18.127604999999999
#
# number of rings (size 3 to 8) (size 9 to 14) (size 15 to 20)
#    0.000    1.778    1.111    2.667    1.556    2.667 
#    8.000    0.000    0.000    0.000    0.000    0.000 
#    0.000    0.000    0.000    0.000    0.000    0.000 
#
# Total GULP energy -200689.664019 kJ/mol
# GULP energy per Si atom -5574.712889 kJ/mol
# Density = 1.808635 g / cm^3
# Si number density = 18.127605 Si / 1000 Ang^3
#
#
#
# Elastic Constant Matrix: (Units=GPa)
#
#
# Indices 1 2 3 4 5 6 
#
# 1 194.2005 52.2718 76.5545 0.0000 0.0000 0.0000
# 2 52.2718 108.7960 35.4866 0.0000 0.0000 0.0000
# 3 76.5545 35.4866 153.7352 0.0000 0.0000 0.0000
# 4 0.0000 0.0000 0.0000 13.7634 0.0000 0.0000
# 5 0.0000 0.0000 0.0000 0.0000 13.6839 0.0000
# 6 0.0000 0.0000 0.0000 0.0000 0.0000 33.6864
#
#
#
# Elastic Compliance Matrix: (Units=1/GPa)
#
#
# Indices 1 2 3 4 5 6 
#
# 1 0.006936 -0.002385 -0.002903 0.000000 0.000000 0.000000
# 2 -0.002385 0.010760 -0.001296 0.000000 0.000000 0.000000
# 3 -0.002903 -0.001296 0.008250 0.000000 0.000000 0.000000
# 4 0.000000 0.000000 0.000000 0.072656 0.000000 0.000000
# 5 0.000000 0.000000 0.000000 0.000000 0.073079 0.000000
# 6 0.000000 0.000000 0.000000 0.000000 0.000000 0.029686
#
#
# Mechanical properties :
#
#
# Convention : Reuss Voigt Hill
#
# Bulk Modulus (GPa) = 78.26819 87.26196 82.76507
# Shear Modulus (GPa) = 22.85255 31.72133 27.28694
#
# Velocity S-wave (km/s) = 3.55441 4.18771 3.88399
# Velocity P-wave (km/s) = 7.75339 8.46313 8.11603
#
# Compressibility (1/GPa) = 0.01277658
#
# Stress axis : x y z
#
# Youngs Moduli (GPa) = 144.17895 92.93404 121.21940
#
# Poissons Ratio (x) = 0.22169 0.35192
# Poissons Ratio (y) = 0.34393 0.15709
# Poissons Ratio (z) = 0.41857 0.12044
#
# Static dielectric constant tensor:
#      x y z
#    x 1.640330 0.000000 0.000000 
#    y 0.000000 1.623580 0.000000 
#    z 0.000000 0.000000 1.576110 
# 
# From -- ./inp_files/63733.got.cif
#   From: 2010.05.17/outbox.cif.g08.bks.cpg/sg74_32_cif.got.tgz:63733.got - 2010.06.03 17:57:02.
