data_PCOD9537244
_publ_section_title
;
Structure prediction by ZEFSAII (Michael W. Deem and Ramdas Pophale) SiO2 
 PCOD9537244
Probable space group: I M M A
;
_chemical_formula_sum "Si O2"
_cell_formula_units_Z 112
_cell_length_a 27.556050
_cell_length_b 15.408660
_cell_length_c 14.456685
_cell_angle_alpha 90.000000
_cell_angle_beta 90.000000
_cell_angle_gamma 90.000000
_cell_volume 6138.334551
_symmetry_space_group_name_H-M "I M M A"
_symmetry_group_IT_number 74
_symmetry_cell_setting 'orthorhombic'
loop_
_space_group_symop_operation_xyz
x,y,z
-x,1/2-y,z
x,-y,-z
-x,1/2+y,-z
-x,-y,-z
x,1/2+y,-z
-x,y,z
x,1/2-y,z
1/2+x,1/2+y,1/2+z
1/2-x,-y,1/2+z
1/2+x,1/2-y,1/2-z
1/2-x,y,1/2-z
1/2-x,1/2-y,1/2-z
1/2+x,y,1/2-z
1/2-x,1/2+y,1/2+z
1/2+x,-y,1/2+z
loop_
_atom_site_type_symbol
_atom_site_label
_atom_site_fract_x
_atom_site_fract_y
_atom_site_fract_z
Si Si1 0.790472 0.599209 0.479986
Si Si2 0.337027 0.850875 0.332664
Si Si3 0.944773 0.396514 0.487128
Si Si4 0.187951 0.346756 0.025540
Si Si5 0.640914 0.149944 0.148494
Si Si6 0.302397 0.538742 0.706702
Si Si7 0.373401 0.848087 0.144451
O O1 0.778237 0.500000 0.500000
O O2 0.740049 0.648685 0.473181
O O3 0.820119 0.638852 0.565731
O O4 0.828132 0.597773 0.395350
O O5 0.318932 0.750000 0.322833
O O6 0.349190 0.861269 0.441003
O O7 0.378609 0.858647 0.254026
O O8 0.304940 0.935072 0.307202
O O9 0.944115 0.500000 0.500000
O O10 0.910184 0.370675 0.401663
O O11 0.919821 0.362846 0.581076
O O12 0.000000 0.366923 0.475662
O O13 0.181455 0.250000 0.064052
O O14 0.190111 0.415575 0.107397
O O15 0.641811 0.250000 0.180898
O O16 0.657052 0.081331 0.226276
O O17 0.250000 0.561548 0.750000
O O18 0.357138 0.750000 0.126573
#
# Coordination Sequence:
#
# PCOD9537244 Si02
#       7
#    16  16  16  16  16  16  16
#     4  11  19  30  47  70 102 139 181 226 270 317
#     4  10  23  38  52  75 105 142 189 237 282 331
#     4  10  20  36  59  86 115 146 184 232 288 347
#     4  11  23  36  51  73 103 142 191 234 273 323
#     4  11  22  35  53  79 112 149 188 232 281 337
#     4  12  23  36  55  75 107 150 194 237 281 332
#     4  10  20  33  51  74 104 140 177 224 279 334
#
# _framework density 18.245992000000001
#
# number of rings (size 3 to 8) (size 9 to 14) (size 15 to 20)
#    0.000    1.286    1.429    7.714    2.000    2.000 
#    0.000    0.000    0.000    0.000    0.000    1.000 
#    0.000    8.000    0.000    0.286    0.000    0.286 
#
# Total GULP energy -312260.074300 kJ/mol
# GULP energy per Si atom -5576.072755 kJ/mol
# Density = 1.820446 g / cm^3
# Si number density = 18.245992 Si / 1000 Ang^3
#
#
#
# Elastic Constant Matrix: (Units=GPa)
#
#
# Indices 1 2 3 4 5 6 
#
# 1 69.3990 16.6792 48.2559 0.0000 0.0000 0.0000
# 2 16.6792 110.5306 43.8866 0.0000 0.0000 0.0000
# 3 48.2559 43.8866 124.1730 0.0000 0.0000 0.0000
# 4 0.0000 0.0000 0.0000 32.5258 0.0000 0.0000
# 5 0.0000 0.0000 0.0000 0.0000 6.9988 0.0000
# 6 0.0000 0.0000 0.0000 0.0000 0.0000 8.2732
#
#
#
# Elastic Compliance Matrix: (Units=1/GPa)
#
#
# Indices 1 2 3 4 5 6 
#
# 1 0.019745 0.000078 -0.007701 0.000000 0.000000 0.000000
# 2 0.000078 0.010524 -0.003750 0.000000 0.000000 0.000000
# 3 -0.007701 -0.003750 0.012371 0.000000 0.000000 0.000000
# 4 0.000000 0.000000 0.000000 0.030745 0.000000 0.000000
# 5 0.000000 0.000000 0.000000 0.000000 0.142882 0.000000
# 6 0.000000 0.000000 0.000000 0.000000 0.000000 0.120872
#
#
# Mechanical properties :
#
#
# Convention : Reuss Voigt Hill
#
# Bulk Modulus (GPa) = 50.26278 57.97176 54.11727
# Shear Modulus (GPa) = 13.64187 22.57829 18.11008
#
# Velocity S-wave (km/s) = 2.73731 3.52154 3.15390
# Velocity P-wave (km/s) = 6.13169 6.95531 6.55644
#
# Compressibility (1/GPa) = 0.01989544
#
# Stress axis : x y z
#
# Youngs Moduli (GPa) = 50.64447 95.01692 80.83147
#
# Poissons Ratio (x) = -0.00742 0.62249
# Poissons Ratio (y) = -0.00396 0.30312
# Poissons Ratio (z) = 0.39002 0.35632
#
# Static dielectric constant tensor:
#      x y z
#    x 1.595630 0.000000 0.000000 
#    y 0.000000 1.679170 0.000000 
#    z 0.000000 0.000000 1.695240 
# 
# From -- ./inp_files/37410.got.cif
#   From: 2010.05.17/outbox.cif.g08.bks.cpg/sg74_19_cif.got.tgz:37410.got - 2010.06.03 17:57:02.
