data_PCOD9537313
_publ_section_title
;
Structure prediction by ZEFSAII (Michael W. Deem and Ramdas Pophale) SiO2 
 PCOD9537313
Probable space group: I M M A
;
_chemical_formula_sum "Si O2"
_cell_formula_units_Z 112
_cell_length_a 13.327667
_cell_length_b 28.737857
_cell_length_c 15.305102
_cell_angle_alpha 90.000000
_cell_angle_beta 90.000000
_cell_angle_gamma 90.000000
_cell_volume 5861.985512
_symmetry_space_group_name_H-M "I M M A"
_symmetry_group_IT_number 74
_symmetry_cell_setting 'orthorhombic'
loop_
_space_group_symop_operation_xyz
x,y,z
-x,1/2-y,z
x,-y,-z
-x,1/2+y,-z
-x,-y,-z
x,1/2+y,-z
-x,y,z
x,1/2-y,z
1/2+x,1/2+y,1/2+z
1/2-x,-y,1/2+z
1/2+x,1/2-y,1/2-z
1/2-x,y,1/2-z
1/2-x,1/2-y,1/2-z
1/2+x,y,1/2-z
1/2-x,1/2+y,1/2+z
1/2+x,-y,1/2+z
loop_
_atom_site_type_symbol
_atom_site_label
_atom_site_fract_x
_atom_site_fract_y
_atom_site_fract_z
Si Si1 0.317086 0.898745 0.365605
Si Si2 0.379113 0.301962 0.588413
Si Si3 0.119803 0.396519 0.203697
Si Si4 0.387541 0.941063 0.189968
Si Si5 0.617572 0.046991 0.127698
Si Si6 0.122084 0.801827 0.883546
Si Si7 0.316873 0.550428 0.535457
O O1 0.334740 0.844148 0.356539
O O2 0.373895 0.928622 0.292085
O O3 0.200982 0.912503 0.355353
O O4 0.350627 0.913436 0.462052
O O5 0.500000 0.305248 0.592077
O O6 0.350197 0.250000 0.616898
O O7 0.350234 0.306765 0.485885
O O8 0.149676 0.415784 0.298433
O O9 0.158372 0.346245 0.171371
O O10 0.140805 0.434681 0.128849
O O11 0.000000 0.392211 0.209621
O O12 0.500000 0.928971 0.161867
O O13 0.371906 0.995636 0.170182
O O14 0.500000 0.052971 0.104396
O O15 0.696174 0.050533 0.049270
O O16 0.154229 0.750000 0.854046
O O17 0.000000 0.802119 0.881167
O O18 0.346306 0.500000 0.500000
#
# Coordination Sequence:
#
# PCOD9537313 Si02
#       7
#    16  16  16  16  16  16  16
#     4  11  21  34  57  84 104 140 180 228 271 315
#     4   9  17  32  55  83 114 143 176 221 271 323
#     4  10  20  33  52  79 111 142 173 219 275 318
#     4  10  22  39  55  75 111 148 180 220 272 329
#     4  10  22  38  53  72 107 151 185 218 262 317
#     4   8  14  27  49  77 107 138 172 212 263 321
#     4  12  22  33  54  78 106 137 184 224 261 321
#
# _framework density 19.106155000000001
#
# number of rings (size 3 to 8) (size 9 to 14) (size 15 to 20)
#    0.000    2.000    2.857    2.571    2.000    1.714 
#    0.000    1.429    0.000    3.857    0.000    0.000 
#    0.000    0.000    0.000    0.000    0.000    0.000 
#
# Total GULP energy -312501.641737 kJ/mol
# GULP energy per Si atom -5580.386460 kJ/mol
# Density = 1.906267 g / cm^3
# Si number density = 19.106155 Si / 1000 Ang^3
#
#
#
# Elastic Constant Matrix: (Units=GPa)
#
#
# Indices 1 2 3 4 5 6 
#
# 1 26.4563 10.3467 -10.2054 0.0000 0.0000 0.0000
# 2 10.3467 110.7331 11.1843 0.0000 0.0000 0.0000
# 3 -10.2054 11.1843 43.0255 0.0002 -0.0001 0.0000
# 4 0.0000 0.0000 0.0002 22.0429 0.0000 0.0000
# 5 0.0000 0.0000 -0.0001 0.0000 16.0489 0.0000
# 6 0.0000 0.0000 0.0000 0.0000 0.0000 21.6786
#
#
#
# Elastic Compliance Matrix: (Units=1/GPa)
#
#
# Indices 1 2 3 4 5 6 
#
# 1 0.044507 -0.005366 0.011952 0.000000 0.000000 0.000000
# 2 -0.005366 0.009921 -0.003852 0.000000 0.000000 0.000000
# 3 0.011952 -0.003852 0.027078 0.000000 0.000000 0.000000
# 4 0.000000 0.000000 0.000000 0.045366 0.000000 0.000000
# 5 0.000000 0.000000 0.000000 0.000000 0.062310 0.000000
# 6 0.000000 0.000000 0.000000 0.000000 0.000000 0.046128
#
#
# Mechanical properties :
#
#
# Convention : Reuss Voigt Hill
#
# Bulk Modulus (GPa) = 11.49763 22.54068 17.01916
# Shear Modulus (GPa) = 19.31743 23.21337 21.26540
#
# Velocity S-wave (km/s) = 3.18316 3.48942 3.33980
# Velocity P-wave (km/s) = 4.42051 5.29698 4.87846
#
# Compressibility (1/GPa) = 0.08697445
#
# Stress axis : x y z
#
# Youngs Moduli (GPa) = 22.46838 100.79509 36.93018
#
# Poissons Ratio (x) = 0.54085 -0.44137
# Poissons Ratio (y) = 0.12056 0.14224
# Poissons Ratio (z) = -0.26853 0.38823
#
# Static dielectric constant tensor:
#      x y z
#    x 1.688680 0.000000 0.000000 
#    y 0.000000 1.678250 0.000000 
#    z 0.000000 0.000000 1.661070 
# 
# From -- ./inp_files/32950.got.cif
#   From: 2010.05.17/outbox.cif.g08.bks.cpg/sg74_17_cif.got.tgz:32950.got - 2010.06.03 17:57:02.
