data_PCOD9537464
_publ_section_title
;
Structure prediction by ZEFSAII (Michael W. Deem and Ramdas Pophale) SiO2 
 PCOD9537464
Probable space group: I M M A
;
_chemical_formula_sum "Si O2"
_cell_formula_units_Z 96
_cell_length_a 8.729905
_cell_length_b 17.112308
_cell_length_c 29.204880
_cell_angle_alpha 90.000000
_cell_angle_beta 90.000000
_cell_angle_gamma 90.000000
_cell_volume 4362.882654
_symmetry_space_group_name_H-M "I M M A"
_symmetry_group_IT_number 74
_symmetry_cell_setting 'orthorhombic'
loop_
_space_group_symop_operation_xyz
x,y,z
-x,1/2-y,z
x,-y,-z
-x,1/2+y,-z
-x,-y,-z
x,1/2+y,-z
-x,y,z
x,1/2-y,z
1/2+x,1/2+y,1/2+z
1/2-x,-y,1/2+z
1/2+x,1/2-y,1/2-z
1/2-x,y,1/2-z
1/2-x,1/2-y,1/2-z
1/2+x,y,1/2-z
1/2-x,1/2+y,1/2+z
1/2+x,-y,1/2+z
loop_
_atom_site_type_symbol
_atom_site_label
_atom_site_fract_x
_atom_site_fract_y
_atom_site_fract_z
Si Si1 0.823163 0.934680 0.865193
Si Si2 0.816885 0.338165 0.443752
Si Si3 0.182694 0.570030 0.301196
Si Si4 0.326476 0.157914 0.204802
Si Si5 0.184183 0.161509 0.611630
Si Si6 0.316515 0.079889 0.526136
O O1 0.747987 0.908166 0.912534
O O2 0.792206 0.857490 0.835242
O O3 0.000000 0.953645 0.871908
O O4 0.744296 0.998410 0.832375
O O5 0.775829 0.250000 0.428112
O O6 0.751044 0.352066 0.494147
O O7 0.000000 0.343178 0.443684
O O8 0.250000 0.573522 0.250000
O O9 0.219408 0.642190 0.335281
O O10 0.000000 0.564089 0.296978
O O11 0.500000 0.128752 0.195711
O O12 0.341338 0.250000 0.211379
O O13 0.250000 0.122330 0.250000
O O14 0.233211 0.250000 0.600411
O O15 0.256889 0.098089 0.577145
O O16 0.000000 0.156554 0.606412
O O17 0.500000 0.081069 0.526648
O O18 0.268205 0.000000 0.500000
#
# Coordination Sequence:
#
# PCOD9537464 Si02
#       6
#    16  16  16  16  16  16
#     4  12  24  38  58  85 120 160 206 258 311 370
#     4  11  24  41  62  90 126 169 216 264 316 377
#     4  11  24  43  67  94 127 165 208 261 320 381
#     4  10  20  34  52  75 106 147 197 251 308 369
#     4  10  23  44  69  97 129 167 211 259 315 379
#     4  11  24  41  64  97 134 170 212 261 312 370
#
# _framework density 22.003799999999998
#
# number of rings (size 3 to 8) (size 9 to 14) (size 15 to 20)
#    0.000    1.167    0.000    6.000    0.000   12.333 
#    0.000    0.000    0.000    0.000    0.000    0.000 
#    0.000    0.000    0.000    0.000    0.000    0.000 
#
# Total GULP energy -268085.570274 kJ/mol
# GULP energy per Si atom -5585.116047 kJ/mol
# Density = 2.195372 g / cm^3
# Si number density = 22.003800 Si / 1000 Ang^3
#
#
#
# Elastic Constant Matrix: (Units=GPa)
#
#
# Indices 1 2 3 4 5 6 
#
# 1 76.8666 36.3546 43.8865 0.0000 0.0000 0.0000
# 2 36.3546 99.1509 43.4036 0.0000 0.0000 0.0000
# 3 43.8865 43.4036 163.2750 0.0000 0.0000 0.0000
# 4 0.0000 0.0000 0.0000 26.9499 0.0000 0.0000
# 5 0.0000 0.0000 0.0000 0.0000 35.5881 0.0000
# 6 0.0000 0.0000 0.0000 0.0000 0.0000 7.5518
#
#
#
# Elastic Compliance Matrix: (Units=1/GPa)
#
#
# Indices 1 2 3 4 5 6 
#
# 1 0.017208 -0.004849 -0.003336 0.000000 0.000000 0.000000
# 2 -0.004849 0.012780 -0.002094 0.000000 0.000000 0.000000
# 3 -0.003336 -0.002094 0.007578 0.000000 0.000000 0.000000
# 4 0.000000 0.000000 0.000000 0.037106 0.000000 0.000000
# 5 0.000000 0.000000 0.000000 0.000000 0.028099 0.000000
# 6 0.000000 0.000000 0.000000 0.000000 0.000000 0.132419
#
#
# Mechanical properties :
#
#
# Convention : Reuss Voigt Hill
#
# Bulk Modulus (GPa) = 58.79746 65.17578 61.98662
# Shear Modulus (GPa) = 19.12650 28.39447 23.76048
#
# Velocity S-wave (km/s) = 2.95148 3.59616 3.28965
# Velocity P-wave (km/s) = 6.19633 6.85038 6.53155
#
# Compressibility (1/GPa) = 0.01700754
#
# Stress axis : x y z
#
# Youngs Moduli (GPa) = 58.11358 78.24595 131.96014
#
# Poissons Ratio (x) = 0.37941 0.44025
# Poissons Ratio (y) = 0.28179 0.27633
# Poissons Ratio (z) = 0.19388 0.16385
#
# Static dielectric constant tensor:
#      x y z
#    x 1.767020 0.000000 0.000000 
#    y 0.000000 1.911330 0.000000 
#    z 0.000000 0.000000 1.706160 
# 
# From -- ./inp_files/64339.got.cif
#   From: 2010.05.17/outbox.cif.g08.bks.cpg/sg74_33_cif.got.tgz:64339.got - 2010.06.03 17:57:02.
