data_PCOD9537042
_publ_section_title
;
Structure prediction by ZEFSAII (Michael W. Deem and Ramdas Pophale) SiO2 
 PCOD9537042
Probable space group: I M M A
;
_chemical_formula_sum "Si O2"
_cell_formula_units_Z 80
_cell_length_a 27.172126
_cell_length_b 9.041886
_cell_length_c 18.750502
_cell_angle_alpha 90.000000
_cell_angle_beta 90.000000
_cell_angle_gamma 90.000000
_cell_volume 4606.759566
_symmetry_space_group_name_H-M "I M M A"
_symmetry_group_IT_number 74
_symmetry_cell_setting 'orthorhombic'
loop_
_space_group_symop_operation_xyz
x,y,z
-x,1/2-y,z
x,-y,-z
-x,1/2+y,-z
-x,-y,-z
x,1/2+y,-z
-x,y,z
x,1/2-y,z
1/2+x,1/2+y,1/2+z
1/2-x,-y,1/2+z
1/2+x,1/2-y,1/2-z
1/2-x,y,1/2-z
1/2-x,1/2-y,1/2-z
1/2+x,y,1/2-z
1/2-x,1/2+y,1/2+z
1/2+x,-y,1/2+z
loop_
_atom_site_type_symbol
_atom_site_label
_atom_site_fract_x
_atom_site_fract_y
_atom_site_fract_z
Si Si1 0.700119 0.574556 0.209597
Si Si2 0.942144 0.925590 0.927071
Si Si3 0.597577 0.423175 0.711817
Si Si4 0.056015 0.427269 0.634507
Si Si5 0.153254 0.573522 0.574407
O O1 0.702563 0.750000 0.191643
O O2 0.750000 0.532771 0.250000
O O3 0.653382 0.555661 0.261646
O O4 0.687728 0.483661 0.138631
O O5 0.938231 0.750000 0.933280
O O6 0.000000 0.965101 0.919509
O O7 0.915247 0.982643 0.856848
O O8 0.923875 0.000000 0.000000
O O9 0.590090 0.250000 0.695127
O O10 0.564425 0.458296 0.781301
O O11 0.063943 0.250000 0.625207
O O12 0.098248 0.514554 0.592959
O O13 0.000000 0.462572 0.613973
O O14 0.168309 0.500000 0.500000
O O15 0.153416 0.750000 0.569961
#
# Coordination Sequence:
#
# PCOD9537042 Si02
#       5
#    16  16  16  16  16
#     4   9  19  38  61  81 103 133 170 213 262 312
#     4  10  20  32  47  69  99 135 172 209 250 298
#     4   9  17  31  52  76 101 130 165 207 255 306
#     4   9  18  33  53  77 106 141 178 213 254 307
#     4  11  22  36  55  79 109 141 175 215 258 307
#
# _framework density 17.365784999999999
#
# number of rings (size 3 to 8) (size 9 to 14) (size 15 to 20)
#    0.000    2.400    0.000    4.200    0.000    6.400 
#    0.000    1.000    0.000    0.000    0.000    0.000 
#    0.000    0.000    0.000    0.000    0.000    0.000 
#
# Total GULP energy -223233.858775 kJ/mol
# GULP energy per Si atom -5580.846469 kJ/mol
# Density = 1.732626 g / cm^3
# Si number density = 17.365785 Si / 1000 Ang^3
#
#
#
# Elastic Constant Matrix: (Units=GPa)
#
#
# Indices 1 2 3 4 5 6 
#
# 1 78.5750 41.8352 36.1692 0.0000 0.0000 0.0000
# 2 41.8352 76.6019 67.6627 0.0000 0.0000 0.0000
# 3 36.1692 67.6627 110.8772 0.0000 0.0000 0.0000
# 4 0.0000 0.0000 0.0000 36.5333 0.0000 0.0000
# 5 0.0000 0.0000 0.0000 0.0000 5.8351 0.0000
# 6 0.0000 0.0000 0.0000 0.0000 0.0000 22.2787
#
#
#
# Elastic Compliance Matrix: (Units=1/GPa)
#
#
# Indices 1 2 3 4 5 6 
#
# 1 0.017948 -0.010045 0.000275 0.000000 0.000000 0.000000
# 2 -0.010045 0.033942 -0.017436 0.000000 0.000000 0.000000
# 3 0.000275 -0.017436 0.019570 0.000000 0.000000 0.000000
# 4 0.000000 0.000000 0.000000 0.027372 0.000000 0.000000
# 5 0.000000 0.000000 0.000000 0.000000 0.171377 0.000000
# 6 0.000000 0.000000 0.000000 0.000000 0.000000 0.044886
#
#
# Mechanical properties :
#
#
# Convention : Reuss Voigt Hill
#
# Bulk Modulus (GPa) = 58.66001 61.93202 60.29602
# Shear Modulus (GPa) = 13.32653 20.95520 17.14087
#
# Velocity S-wave (km/s) = 2.77321 3.47752 3.14514
# Velocity P-wave (km/s) = 6.64128 7.20173 6.92717
#
# Compressibility (1/GPa) = 0.01704739
#
# Stress axis : x y z
#
# Youngs Moduli (GPa) = 55.71518 29.46175 51.09943
#
# Poissons Ratio (x) = 0.29596 -0.01407
# Poissons Ratio (y) = 0.55969 0.89099
# Poissons Ratio (z) = -0.01534 0.51370
#
# Static dielectric constant tensor:
#      x y z
#    x 1.584390 0.000000 0.000000 
#    y 0.000000 1.578230 0.000000 
#    z 0.000000 0.000000 1.574840 
# 
# From -- ./inp_files/39680.got.cif
#   From: 2010.05.17/outbox.cif.g08.bks.cpg/sg74_20_cif.got.tgz:39680.got - 2010.06.03 17:57:02.
