data_PCOD9537835
_publ_section_title
;
Structure prediction by ZEFSAII (Michael W. Deem and Ramdas Pophale) SiO2 
 PCOD9537835
Probable space group: I M M A
;
_chemical_formula_sum "Si O2"
_cell_formula_units_Z 112
_cell_length_a 15.814388
_cell_length_b 14.252391
_cell_length_c 25.185027
_cell_angle_alpha 90.000000
_cell_angle_beta 90.000000
_cell_angle_gamma 90.000000
_cell_volume 5676.524791
_symmetry_space_group_name_H-M "I M M A"
_symmetry_group_IT_number 74
_symmetry_cell_setting 'orthorhombic'
loop_
_space_group_symop_operation_xyz
x,y,z
-x,1/2-y,z
x,-y,-z
-x,1/2+y,-z
-x,-y,-z
x,1/2+y,-z
-x,y,z
x,1/2-y,z
1/2+x,1/2+y,1/2+z
1/2-x,-y,1/2+z
1/2+x,1/2-y,1/2-z
1/2-x,y,1/2-z
1/2-x,1/2-y,1/2-z
1/2+x,y,1/2-z
1/2-x,1/2+y,1/2+z
1/2+x,-y,1/2+z
loop_
_atom_site_type_symbol
_atom_site_label
_atom_site_fract_x
_atom_site_fract_y
_atom_site_fract_z
Si Si1 0.663629 0.019600 0.943840
Si Si2 0.603090 0.540196 0.255639
Si Si3 0.399181 0.642054 0.692344
Si Si4 0.172307 0.362432 0.971317
Si Si5 0.706352 0.138047 0.414333
Si Si6 0.600716 0.856095 0.150948
Si Si7 0.899348 0.356663 0.861149
O O1 0.737488 0.090831 0.961938
O O2 0.615658 0.074869 0.898151
O O3 0.711115 0.927867 0.919977
O O4 0.617244 0.000000 0.000000
O O5 0.500000 0.546419 0.254155
O O6 0.623975 0.430681 0.261361
O O7 0.635359 0.595477 0.204501
O O8 0.632882 0.585572 0.311027
O O9 0.500000 0.630600 0.681006
O O10 0.384953 0.750000 0.707181
O O11 0.346343 0.621433 0.639059
O O12 0.174729 0.250000 0.968637
O O13 0.119892 0.394049 0.919988
O O14 0.150861 0.384445 0.032520
O O15 0.726811 0.250000 0.416146
O O16 0.500000 0.847680 0.157688
O O17 0.634410 0.750000 0.142904
O O18 0.867090 0.250000 0.857018
O O19 0.000000 0.353575 0.856106
#
# Coordination Sequence:
#
# PCOD9537835 Si02
#       7
#    16  16  16  16  16  16  16
#     4  10  20  35  55  75 101 132 161 198 251 308
#     4   9  17  31  50  72 101 134 166 205 255 303
#     4   9  17  30  50  74 101 138 183 223 250 277
#     4   9  17  29  46  70 101 137 174 211 253 298
#     4   9  18  32  49  71 102 141 180 213 250 295
#     4  10  21  38  61  84 101 121 155 201 253 311
#     4   9  16  26  43  69 102 139 176 212 249 290
#
# _framework density 19.730381999999999
#
# number of rings (size 3 to 8) (size 9 to 14) (size 15 to 20)
#    0.000    2.714    0.000    1.714    0.000    3.143 
#    0.000    6.429    0.000   13.286    0.000    0.000 
#    0.000    0.000    0.000    0.000    0.000    0.000 
#
# Total GULP energy -311924.761224 kJ/mol
# GULP energy per Si atom -5570.085022 kJ/mol
# Density = 1.968547 g / cm^3
# Si number density = 19.730382 Si / 1000 Ang^3
#
#
#
# Elastic Constant Matrix: (Units=GPa)
#
#
# Indices 1 2 3 4 5 6 
#
# 1 11.4461 17.8138 10.9905 0.0000 0.0000 0.0000
# 2 17.8138 109.7227 85.4215 0.0000 0.0000 0.0000
# 3 10.9905 85.4215 108.4792 0.0000 0.0000 0.0000
# 4 0.0000 0.0000 0.0000 29.1914 0.0000 0.0000
# 5 0.0000 0.0000 0.0000 0.0000 40.6608 0.0000
# 6 0.0000 0.0000 0.0000 0.0000 0.0000 16.4210
#
#
#
# Elastic Compliance Matrix: (Units=1/GPa)
#
#
# Indices 1 2 3 4 5 6 
#
# 1 0.119665 -0.025815 0.008204 0.000000 0.000000 0.000000
# 2 -0.025815 0.029122 -0.020316 0.000000 0.000000 0.000000
# 3 0.008204 -0.020316 0.024385 0.000000 0.000000 0.000000
# 4 0.000000 0.000000 0.000000 0.034257 0.000000 0.000000
# 5 0.000000 0.000000 0.000000 0.000000 0.024594 0.000000
# 6 0.000000 0.000000 0.000000 0.000000 0.000000 0.060898
#
#
# Mechanical properties :
#
#
# Convention : Reuss Voigt Hill
#
# Bulk Modulus (GPa) = 10.27568 50.89995 30.58781
# Shear Modulus (GPa) = 12.46220 24.94944 18.70582
#
# Velocity S-wave (km/s) = 2.51594 3.55987 3.08242
# Velocity P-wave (km/s) = 3.69585 6.53840 5.31083
#
# Compressibility (1/GPa) = 0.09731717
#
# Stress axis : x y z
#
# Youngs Moduli (GPa) = 8.35670 34.33857 41.00846
#
# Poissons Ratio (x) = 0.88645 -0.33644
# Poissons Ratio (y) = 0.21573 0.83314
# Poissons Ratio (z) = -0.06856 0.69764
#
# Static dielectric constant tensor:
#      x y z
#    x 1.687910 0.000000 0.000000 
#    y 0.000000 1.741710 0.000000 
#    z 0.000000 0.000000 1.730350 
# 
# From -- ./inp_files/60127.got.cif
#   From: 2010.05.17/outbox.cif.g08.bks.cpg/sg74_31_cif.got.tgz:60127.got - 2010.06.03 17:57:02.
