data_PCOD9537796
_publ_section_title
;
Structure prediction by ZEFSAII (Michael W. Deem and Ramdas Pophale) SiO2 
 PCOD9537796
Probable space group: I M M A
;
_chemical_formula_sum "Si O2"
_cell_formula_units_Z 72
_cell_length_a 16.089375
_cell_length_b 8.268384
_cell_length_c 29.040114
_cell_angle_alpha 90.000000
_cell_angle_beta 90.000000
_cell_angle_gamma 90.000000
_cell_volume 3863.297285
_symmetry_space_group_name_H-M "I M M A"
_symmetry_group_IT_number 74
_symmetry_cell_setting 'orthorhombic'
loop_
_space_group_symop_operation_xyz
x,y,z
-x,1/2-y,z
x,-y,-z
-x,1/2+y,-z
-x,-y,-z
x,1/2+y,-z
-x,y,z
x,1/2-y,z
1/2+x,1/2+y,1/2+z
1/2-x,-y,1/2+z
1/2+x,1/2-y,1/2-z
1/2-x,y,1/2-z
1/2-x,1/2-y,1/2-z
1/2+x,y,1/2-z
1/2-x,1/2+y,1/2+z
1/2+x,-y,1/2+z
loop_
_atom_site_type_symbol
_atom_site_label
_atom_site_fract_x
_atom_site_fract_y
_atom_site_fract_z
Si Si1 0.743354 0.557005 0.141445
Si Si2 0.500000 0.555154 0.553086
Si Si3 0.318152 0.944028 0.552687
Si Si4 0.906402 0.058017 0.296203
Si Si5 0.907636 0.942903 0.192552
O O1 0.742296 0.750000 0.145990
O O2 0.750877 0.510188 0.088096
O O3 0.663609 0.490028 0.167688
O O4 0.827836 0.491645 0.165610
O O5 0.500000 0.750000 0.555752
O O6 0.500000 0.500000 0.500000
O O7 0.589906 0.497357 0.570201
O O8 0.317643 0.750000 0.553362
O O9 0.307709 0.000000 0.500000
O O10 0.902884 0.250000 0.288389
O O11 0.000000 0.016302 0.312055
O O12 0.893930 0.974165 0.246765
O O13 0.910360 0.750000 0.184928
O O14 0.000000 0.009144 0.180423
#
# Coordination Sequence:
#
# PCOD9537796 Si02
#       5
#    16   8  16  16  16
#     4  11  22  34  54  81 108 143 182 221 266 318
#     4   8  16  30  48  70  98 136 174 210 254 302
#     4  10  20  35  53  76 107 142 180 222 265 313
#     4  10  21  37  56  78 105 139 179 225 274 321
#     4   9  19  35  53  77 111 146 178 215 261 317
#
# _framework density 18.636928000000001
#
# number of rings (size 3 to 8) (size 9 to 14) (size 15 to 20)
#    0.000    2.222    0.000    2.667    1.556    6.667 
#    0.000    0.000    0.000    0.667    0.000    0.000 
#    0.000    0.000    0.000    0.000    0.000    0.000 
#
# Total GULP energy -200873.886563 kJ/mol
# GULP energy per Si atom -5579.830182 kJ/mol
# Density = 1.859451 g / cm^3
# Si number density = 18.636928 Si / 1000 Ang^3
#
#
#
# Elastic Constant Matrix: (Units=GPa)
#
#
# Indices 1 2 3 4 5 6 
#
# 1 103.9590 8.5561 60.9418 0.0000 0.0000 0.0000
# 2 8.5561 17.6505 -10.4445 0.0000 0.0000 0.0000
# 3 60.9418 -10.4445 63.9890 0.0000 0.0000 0.0000
# 4 0.0000 0.0000 0.0000 21.0269 0.0000 0.0000
# 5 0.0000 0.0000 0.0000 0.0000 21.1118 0.0000
# 6 0.0000 0.0000 0.0000 0.0000 0.0000 22.7715
#
#
#
# Elastic Compliance Matrix: (Units=1/GPa)
#
#
# Indices 1 2 3 4 5 6 
#
# 1 0.040903 -0.047463 -0.046702 0.000000 0.000000 0.000000
# 2 -0.047463 0.117788 0.064429 0.000000 0.000000 0.000000
# 3 -0.046702 0.064429 0.070622 0.000000 0.000000 0.000000
# 4 0.000000 0.000000 0.000000 0.047558 0.000000 0.000000
# 5 0.000000 0.000000 0.000000 0.000000 0.047367 0.000000
# 6 0.000000 0.000000 0.000000 0.000000 0.000000 0.043915
#
#
# Mechanical properties :
#
#
# Convention : Reuss Voigt Hill
#
# Bulk Modulus (GPa) = 5.88788 33.74501 19.81645
# Shear Modulus (GPa) = 10.32549 21.41838 15.87193
#
# Velocity S-wave (km/s) = 2.35635 3.39373 2.92145
# Velocity P-wave (km/s) = 3.25104 5.78812 4.69423
#
# Compressibility (1/GPa) = 0.16984045
#
# Stress axis : x y z
#
# Youngs Moduli (GPa) = 24.44832 8.48980 14.15991
#
# Poissons Ratio (x) = 0.40295 0.66129
# Poissons Ratio (y) = 1.16039 -0.91230
# Poissons Ratio (z) = 1.14178 -0.54699
#
# Static dielectric constant tensor:
#      x y z
#    x 1.670360 0.000000 0.000000 
#    y 0.000000 1.643520 0.000000 
#    z 0.000000 0.000000 1.618080 
# 
# From -- ./inp_files/56696.got.cif
#   From: 2010.05.17/outbox.cif.g08.bks.cpg/sg74_29_cif.got.tgz:56696.got - 2010.06.03 17:57:02.
