data_PCOD9537110
_publ_section_title
;
Structure prediction by ZEFSAII (Michael W. Deem and Ramdas Pophale) SiO2 
 PCOD9537110
Probable space group: I M M A
;
_chemical_formula_sum "Si O2"
_cell_formula_units_Z 88
_cell_length_a 8.518592
_cell_length_b 28.827036
_cell_length_c 19.557151
_cell_angle_alpha 90.000000
_cell_angle_beta 90.000000
_cell_angle_gamma 90.000000
_cell_volume 4802.566615
_symmetry_space_group_name_H-M "I M M A"
_symmetry_group_IT_number 74
_symmetry_cell_setting 'orthorhombic'
loop_
_space_group_symop_operation_xyz
x,y,z
-x,1/2-y,z
x,-y,-z
-x,1/2+y,-z
-x,-y,-z
x,1/2+y,-z
-x,y,z
x,1/2-y,z
1/2+x,1/2+y,1/2+z
1/2-x,-y,1/2+z
1/2+x,1/2-y,1/2-z
1/2-x,y,1/2-z
1/2-x,1/2-y,1/2-z
1/2+x,y,1/2-z
1/2-x,1/2+y,1/2+z
1/2+x,-y,1/2+z
loop_
_atom_site_type_symbol
_atom_site_label
_atom_site_fract_x
_atom_site_fract_y
_atom_site_fract_z
Si Si1 0.688113 0.968723 0.827865
Si Si2 0.812368 0.628433 0.827275
Si Si3 0.310848 0.750000 0.173291
Si Si4 0.689680 0.571013 0.172226
Si Si5 0.689978 0.660084 0.087063
Si Si6 0.689661 0.803381 0.554793
O O1 0.500000 0.965416 0.828185
O O2 0.750000 0.969232 0.750000
O O3 0.756588 0.921205 0.857330
O O4 0.734410 0.019631 0.854866
O O5 0.750000 0.633388 0.750000
O O6 0.759775 0.669813 0.876764
O O7 0.000000 0.627945 0.824040
O O8 0.500000 0.750000 0.174539
O O9 0.250000 0.750000 0.250000
O O10 0.259532 0.795996 0.133030
O O11 0.500000 0.572199 0.175438
O O12 0.750000 0.576775 0.250000
O O13 0.742794 0.612747 0.123669
O O14 0.500000 0.659685 0.084876
O O15 0.752368 0.668966 0.011405
O O16 0.500000 0.802750 0.554149
O O17 0.745109 0.750000 0.552050
#
# Coordination Sequence:
#
# PCOD9537110 Si02
#       6
#    16  16   8  16  16  16
#     4   9  16  29  50  76 105 137 169 207 256 304
#     4  10  20  35  56  81 105 130 166 212 258 312
#     4  10  20  32  50  76 103 134 175 218 255 296
#     4   9  18  31  50  77 108 139 175 216 255 300
#     4  10  20  35  52  75 105 138 177 216 256 304
#     4  10  22  39  56  75 102 136 172 212 262 314
#
# _framework density 18.323535
#
# number of rings (size 3 to 8) (size 9 to 14) (size 15 to 20)
#    0.000    2.364    0.909    2.727    0.000    4.000 
#    0.000    0.909    0.000    5.455    0.000    0.000 
#    0.000    0.000    0.000    0.000    0.000    0.000 
#
# Total GULP energy -245338.565646 kJ/mol
# GULP energy per Si atom -5575.876492 kJ/mol
# Density = 1.828183 g / cm^3
# Si number density = 18.323535 Si / 1000 Ang^3
#
#
#
# Elastic Constant Matrix: (Units=GPa)
#
#
# Indices 1 2 3 4 5 6 
#
# 1 16.2671 21.1289 15.8108 0.0000 0.0000 0.0000
# 2 21.1289 133.8519 67.1279 0.0000 0.0000 0.0000
# 3 15.8108 67.1279 100.1215 -0.0002 0.0000 0.0000
# 4 0.0000 0.0000 -0.0002 -4.5253 0.0000 0.0000
# 5 0.0000 0.0000 0.0000 0.0000 25.0492 0.0000
# 6 0.0000 0.0000 0.0000 0.0000 0.0000 14.0219
#
#
#
# Elastic Compliance Matrix: (Units=1/GPa)
#
#
# Indices 1 2 3 4 5 6 
#
# 1 0.079855 -0.009463 -0.006266 0.000000 0.000000 0.000000
# 2 -0.009463 0.012377 -0.006804 0.000000 0.000000 0.000000
# 3 -0.006266 -0.006804 0.015539 -0.000001 0.000000 0.000000
# 4 0.000000 0.000000 -0.000001 -0.220982 0.000000 -0.000001
# 5 0.000000 0.000000 0.000000 0.000000 0.039921 0.000000
# 6 0.000000 0.000000 0.000000 -0.000001 0.000000 0.071317
#
#
# Mechanical properties :
#
#
# Convention : Reuss Voigt Hill
#
# Bulk Modulus (GPa) = 15.94755 50.93064 33.43909
# Shear Modulus (GPa) = 78.13170 16.65403 47.39287
#
# Velocity S-wave (km/s) = 6.53702 3.01805 5.09123
# Velocity P-wave (km/s) = 8.10550 6.32458 7.26978
#
# Compressibility (1/GPa) = 0.06270557
#
# Stress axis : x y z
#
# Youngs Moduli (GPa) = 12.52271 80.79547 64.35360
#
# Poissons Ratio (x) = 0.76456 0.40323
# Poissons Ratio (y) = 0.11850 0.43786
# Poissons Ratio (z) = 0.07847 0.54973
#
# Static dielectric constant tensor:
#      x y z
#    x 1.626440 0.000000 0.000000 
#    y 0.000000 1.674000 0.000000 
#    z 0.000000 0.000000 1.588490 
# 
# From -- ./inp_files/40132.got.cif
#   From: 2010.05.17/outbox.cif.g08.bks.cpg/sg74_21_cif.got.tgz:40132.got - 2010.06.03 17:57:02.
