data_PCOD9537069
_publ_section_title
;
Structure prediction by ZEFSAII (Michael W. Deem and Ramdas Pophale) SiO2 
 PCOD9537069
Probable space group: I M M A
;
_chemical_formula_sum "Si O2"
_cell_formula_units_Z 80
_cell_length_a 10.586921
_cell_length_b 26.391916
_cell_length_c 16.655345
_cell_angle_alpha 90.000000
_cell_angle_beta 90.000000
_cell_angle_gamma 90.000000
_cell_volume 4653.655452
_symmetry_space_group_name_H-M "I M M A"
_symmetry_group_IT_number 74
_symmetry_cell_setting 'orthorhombic'
loop_
_space_group_symop_operation_xyz
x,y,z
-x,1/2-y,z
x,-y,-z
-x,1/2+y,-z
-x,-y,-z
x,1/2+y,-z
-x,y,z
x,1/2-y,z
1/2+x,1/2+y,1/2+z
1/2-x,-y,1/2+z
1/2+x,1/2-y,1/2-z
1/2-x,y,1/2-z
1/2-x,1/2-y,1/2-z
1/2+x,y,1/2-z
1/2-x,1/2+y,1/2+z
1/2+x,-y,1/2+z
loop_
_atom_site_type_symbol
_atom_site_label
_atom_site_fract_x
_atom_site_fract_y
_atom_site_fract_z
Si Si1 0.256067 0.034876 0.428083
Si Si2 0.357547 0.948291 0.316713
Si Si3 0.142120 0.124475 0.965516
Si Si4 0.359890 0.887152 0.815012
Si Si5 0.144653 0.309979 0.458167
O O1 0.338218 0.078321 0.471361
O O2 0.156106 0.064669 0.373856
O O3 0.202466 0.000000 0.500000
O O4 0.336036 0.998360 0.370688
O O5 0.500000 0.948644 0.283549
O O6 0.250000 0.946697 0.250000
O O7 0.344977 0.901358 0.378385
O O8 0.000000 0.144837 0.974012
O O9 0.251004 0.164543 0.985091
O O10 0.500000 0.886907 0.778881
O O11 0.250000 0.889102 0.750000
O O12 0.344831 0.838234 0.872365
O O13 0.162731 0.250000 0.450942
O O14 0.000000 0.319431 0.486172
#
# Coordination Sequence:
#
# PCOD9537069 Si02
#       5
#    16  16  16  16  16
#     4   9  18  32  50  71  98 133 170 206 243 282
#     4  10  20  32  48  72 102 134 165 199 240 288
#     4   9  18  33  52  74  99 127 163 205 245 287
#     4  10  21  34  49  72 102 133 165 203 245 290
#     4   9  19  36  55  74  97 126 161 202 248 295
#
# _framework density 17.190787
#
# number of rings (size 3 to 8) (size 9 to 14) (size 15 to 20)
#    0.000    2.600    0.000    1.200    0.000   10.800 
#    0.000    4.000    0.000    0.600    0.000    0.000 
#    0.000    0.000    0.000    0.000    0.000    0.000 
#
# Total GULP energy -223003.170732 kJ/mol
# GULP energy per Si atom -5575.079268 kJ/mol
# Density = 1.715166 g / cm^3
# Si number density = 17.190787 Si / 1000 Ang^3
#
#
#
# Elastic Constant Matrix: (Units=GPa)
#
#
# Indices 1 2 3 4 5 6 
#
# 1 155.9366 66.2676 74.9697 0.0000 0.0000 0.0000
# 2 66.2676 96.3783 29.5664 0.0000 0.0000 0.0000
# 3 74.9697 29.5664 68.0676 0.0002 0.0000 0.0000
# 4 0.0000 0.0000 0.0002 7.1618 0.0000 0.0000
# 5 0.0000 0.0000 0.0000 0.0000 21.8689 0.0000
# 6 0.0000 0.0000 0.0000 0.0000 0.0000 13.5403
#
#
#
# Elastic Compliance Matrix: (Units=1/GPa)
#
#
# Indices 1 2 3 4 5 6 
#
# 1 0.016732 -0.006751 -0.015496 0.000000 0.000000 0.000000
# 2 -0.006751 0.014695 0.001052 0.000000 0.000000 0.000000
# 3 -0.015496 0.001052 0.031302 -0.000001 0.000000 0.000000
# 4 0.000000 0.000000 -0.000001 0.139629 0.000000 0.000000
# 5 0.000000 0.000000 0.000000 0.000000 0.045727 0.000000
# 6 0.000000 0.000000 0.000000 0.000000 0.000000 0.073854
#
#
# Mechanical properties :
#
#
# Convention : Reuss Voigt Hill
#
# Bulk Modulus (GPa) = 49.16656 73.55445 61.36051
# Shear Modulus (GPa) = 13.47326 18.48613 15.97969
#
# Velocity S-wave (km/s) = 2.80259 3.28281 3.05216
# Velocity P-wave (km/s) = 6.25582 7.56632 6.94206
#
# Compressibility (1/GPa) = 0.02033903
#
# Stress axis : x y z
#
# Youngs Moduli (GPa) = 59.76707 68.05266 31.94733
#
# Poissons Ratio (x) = 0.45939 0.49506
# Poissons Ratio (y) = 0.40346 -0.03362
# Poissons Ratio (z) = 0.92615 -0.07161
#
# Static dielectric constant tensor:
#      x y z
#    x 1.587540 0.000000 0.000000 
#    y 0.000000 1.573490 0.000000 
#    z 0.000000 0.000000 1.578070 
# 
# From -- ./inp_files/30668.got.cif
#   From: 2010.05.17/outbox.cif.g08.bks.cpg/sg74_16_cif.got.tgz:30668.got - 2010.06.03 17:57:02.
