data_PCOD9537419
_publ_section_title
;
Structure prediction by ZEFSAII (Michael W. Deem and Ramdas Pophale) SiO2 
 PCOD9537419
Probable space group: I M M A
;
_chemical_formula_sum "Si O2"
_cell_formula_units_Z 80
_cell_length_a 9.823846
_cell_length_b 14.047821
_cell_length_c 26.048234
_cell_angle_alpha 90.000000
_cell_angle_beta 90.000000
_cell_angle_gamma 90.000000
_cell_volume 3594.750851
_symmetry_space_group_name_H-M "I M M A"
_symmetry_group_IT_number 74
_symmetry_cell_setting 'orthorhombic'
loop_
_space_group_symop_operation_xyz
x,y,z
-x,1/2-y,z
x,-y,-z
-x,1/2+y,-z
-x,-y,-z
x,1/2+y,-z
-x,y,z
x,1/2-y,z
1/2+x,1/2+y,1/2+z
1/2-x,-y,1/2+z
1/2+x,1/2-y,1/2-z
1/2-x,y,1/2-z
1/2-x,1/2-y,1/2-z
1/2+x,y,1/2-z
1/2-x,1/2+y,1/2+z
1/2+x,-y,1/2+z
loop_
_atom_site_type_symbol
_atom_site_label
_atom_site_fract_x
_atom_site_fract_y
_atom_site_fract_z
Si Si1 0.651008 0.387796 0.509730
Si Si2 0.658975 0.889659 0.298219
Si Si3 0.148418 0.882308 0.793275
Si Si4 0.222219 0.146333 0.401705
Si Si5 0.841832 0.419840 0.602815
O O1 0.641488 0.500000 0.500000
O O2 0.500000 0.355868 0.526319
O O3 0.693751 0.350143 0.454371
O O4 0.768197 0.377969 0.552255
O O5 0.500000 0.856189 0.300901
O O6 0.750000 0.854845 0.250000
O O7 0.749355 0.882354 0.349936
O O8 0.647962 0.003306 0.291650
O O9 0.250000 0.849864 0.750000
O O10 0.187764 0.854770 0.850550
O O11 0.000000 0.849773 0.779881
O O12 0.147584 0.250000 0.399951
O O13 0.159874 0.037705 0.400353
O O14 0.000000 0.392392 0.607553
#
# Coordination Sequence:
#
# PCOD9537419 Si02
#       5
#    16  16  16  16  16
#     4   9  18  33  52  71  92 123 164 208 255 305
#     4   9  16  28  48  73  99 127 163 205 246 290
#     4   9  18  31  46  65  91 125 163 202 244 288
#     4  10  21  34  50  72  97 127 168 215 257 298
#     4  10  20  34  51  71  99 134 168 204 250 301
#
# _framework density 22.254670999999998
#
# number of rings (size 3 to 8) (size 9 to 14) (size 15 to 20)
#    0.000    2.600    0.000    1.800    0.000   15.600 
#    0.000    0.000    0.000    0.000    0.000    0.000 
#    0.000    0.800    0.000    2.600    0.000   10.600 
#
# Total GULP energy -222811.721656 kJ/mol
# GULP energy per Si atom -5570.293041 kJ/mol
# Density = 2.220402 g / cm^3
# Si number density = 22.254671 Si / 1000 Ang^3
#
#
#
# Elastic Constant Matrix: (Units=GPa)
#
#
# Indices 1 2 3 4 5 6 
#
# 1 240.1709 13.6894 125.4126 0.0000 0.0000 0.0000
# 2 13.6894 106.8331 24.1038 0.0000 0.0000 0.0000
# 3 125.4126 24.1038 191.2506 0.0000 0.0000 0.0000
# 4 0.0000 0.0000 0.0000 18.8162 0.0000 0.0000
# 5 0.0000 0.0000 0.0000 0.0000 15.0277 0.0000
# 6 0.0000 0.0000 0.0000 0.0000 0.0000 -23.8659
#
#
#
# Elastic Compliance Matrix: (Units=1/GPa)
#
#
# Indices 1 2 3 4 5 6 
#
# 1 0.006334 0.000129 -0.004170 0.000000 0.000000 0.000000
# 2 0.000129 0.009637 -0.001299 0.000000 0.000000 0.000000
# 3 -0.004170 -0.001299 0.008127 0.000000 0.000000 0.000000
# 4 0.000000 0.000000 0.000000 0.053146 0.000000 0.000000
# 5 0.000000 0.000000 0.000000 0.000000 0.066544 0.000000
# 6 0.000000 0.000000 0.000000 0.000000 0.000000 -0.041901
#
#
# Mechanical properties :
#
#
# Convention : Reuss Voigt Hill
#
# Bulk Modulus (GPa) = 74.52700 96.07403 85.30051
# Shear Modulus (GPa) = 42.72132 26.99886 34.86009
#
# Velocity S-wave (km/s) = 4.38614 3.48685 3.96209
# Velocity P-wave (km/s) = 7.69493 7.71199 7.70346
#
# Compressibility (1/GPa) = 0.01341796
#
# Stress axis : x y z
#
# Youngs Moduli (GPa) = 157.88840 103.76683 123.05172
#
# Poissons Ratio (x) = -0.01340 0.51307
# Poissons Ratio (y) = -0.02039 0.15988
# Poissons Ratio (z) = 0.65832 0.13482
#
# Static dielectric constant tensor:
#      x y z
#    x 1.786270 0.000000 0.000000 
#    y 0.000000 1.869380 0.000000 
#    z 0.000000 0.000000 1.762400 
# 
# From -- ./inp_files/63959.got.cif
#   From: 2010.05.17/outbox.cif.g08.bks.cpg/sg74_32_cif.got.tgz:63959.got - 2010.06.03 17:57:02.
