data_PCOD9537493
_publ_section_title
;
Structure prediction by ZEFSAII (Michael W. Deem and Ramdas Pophale) SiO2 
 PCOD9537493
Probable space group: I M M A
;
_chemical_formula_sum "Si O2"
_cell_formula_units_Z 84
_cell_length_a 10.513412
_cell_length_b 15.274298
_cell_length_c 27.611074
_cell_angle_alpha 90.000000
_cell_angle_beta 90.000000
_cell_angle_gamma 90.000000
_cell_volume 4433.923984
_symmetry_space_group_name_H-M "I M M A"
_symmetry_group_IT_number 74
_symmetry_cell_setting 'orthorhombic'
loop_
_space_group_symop_operation_xyz
x,y,z
-x,1/2-y,z
x,-y,-z
-x,1/2+y,-z
-x,-y,-z
x,1/2+y,-z
-x,y,z
x,1/2-y,z
1/2+x,1/2+y,1/2+z
1/2-x,-y,1/2+z
1/2+x,1/2-y,1/2-z
1/2-x,y,1/2-z
1/2-x,1/2-y,1/2-z
1/2+x,y,1/2-z
1/2-x,1/2+y,1/2+z
1/2+x,-y,1/2+z
loop_
_atom_site_type_symbol
_atom_site_label
_atom_site_fract_x
_atom_site_fract_y
_atom_site_fract_z
Si Si1 0.350433 0.444390 0.705805
Si Si2 0.774007 0.250000 0.405038
Si Si3 0.238027 0.557815 0.882169
Si Si4 0.854016 0.750000 0.207637
Si Si5 0.649948 0.562221 0.043120
Si Si6 0.500000 0.064841 0.455717
Si Si7 0.500000 0.750000 0.552753
Si Si8 0.349279 0.250000 0.982692
O O1 0.500000 0.454411 0.719954
O O2 0.250000 0.447951 0.750000
O O3 0.312606 0.519208 0.667879
O O4 0.339186 0.345464 0.683064
O O5 0.798676 0.155450 0.380655
O O6 0.622632 0.250000 0.413385
O O7 0.832665 0.250000 0.459094
O O8 0.330865 0.487208 0.906655
O O9 0.120793 0.558106 0.920223
O O10 0.750000 0.750000 0.250000
O O11 0.000000 0.750000 0.226699
O O12 0.500000 0.571229 0.034171
O O13 0.699497 0.500000 0.000000
O O14 0.705801 0.659568 0.038217
O O15 0.500000 0.162306 0.477352
O O16 0.500000 0.000000 0.500000
O O17 0.500000 0.250000 0.971949
#
# Coordination Sequence:
#
# PCOD9537493 Si02
#       8
#    16   8  16   8  16   8   4   8
#     4  10  21  40  62  87 117 152 195 250 305 361
#     4  10  20  34  54  77 109 152 192 228 286 352
#     4  11  21  36  57  82 112 149 193 239 291 349
#     4   8  16  33  59  83 109 144 185 231 299 361
#     4  10  20  34  53  79 113 151 192 235 283 342
#     4  10  20  34  52  78 114 146 184 228 283 337
#     4   8  20  32  46  72 106 150 186 216 272 342
#     4  10  20  35  53  78 115 159 197 239 283 344
#
# _framework density 18.944844
#
# number of rings (size 3 to 8) (size 9 to 14) (size 15 to 20)
#    0.000    2.095    2.857    0.571    2.667    1.524 
#    0.000    1.429    0.000    3.429    0.000    0.000 
#    0.000    0.000    0.000    0.000    0.000    0.000 
#
# Total GULP energy -233821.788171 kJ/mol
# GULP energy per Si atom -5567.185433 kJ/mol
# Density = 1.890172 g / cm^3
# Si number density = 18.944844 Si / 1000 Ang^3
#
#
#
# Elastic Constant Matrix: (Units=GPa)
#
#
# Indices 1 2 3 4 5 6 
#
# 1 19.3890 26.2819 14.7983 0.0000 0.0000 0.0000
# 2 26.2819 198.4899 58.7036 0.0000 0.0000 0.0000
# 3 14.7983 58.7036 60.8684 0.0000 0.0000 0.0000
# 4 0.0000 0.0000 0.0000 24.4490 0.0000 0.0000
# 5 0.0000 0.0000 0.0000 0.0000 14.8796 0.0000
# 6 0.0000 0.0000 0.0000 0.0000 0.0000 7.5773
#
#
#
# Elastic Compliance Matrix: (Units=1/GPa)
#
#
# Indices 1 2 3 4 5 6 
#
# 1 0.067684 -0.005730 -0.010929 0.000000 0.000000 0.000000
# 2 -0.005730 0.007534 -0.005873 0.000000 0.000000 0.000000
# 3 -0.010929 -0.005873 0.024750 0.000000 0.000000 0.000000
# 4 0.000000 0.000000 0.000000 0.040901 0.000000 0.000000
# 5 0.000000 0.000000 0.000000 0.000000 0.067206 0.000000
# 6 0.000000 0.000000 0.000000 0.000000 0.000000 0.131974
#
#
# Mechanical properties :
#
#
# Convention : Reuss Voigt Hill
#
# Bulk Modulus (GPa) = 18.21370 53.14613 35.67992
# Shear Modulus (GPa) = 12.39425 21.31208 16.85316
#
# Velocity S-wave (km/s) = 2.56056 3.35767 2.98584
# Velocity P-wave (km/s) = 4.28683 6.56856 5.54630
#
# Compressibility (1/GPa) = 0.05490371
#
# Stress axis : x y z
#
# Youngs Moduli (GPa) = 14.77460 132.74002 40.40435
#
# Poissons Ratio (x) = 0.76054 0.44160
# Poissons Ratio (y) = 0.08465 0.23728
# Poissons Ratio (z) = 0.16148 0.77953
#
# Static dielectric constant tensor:
#      x y z
#    x 1.734640 0.000000 0.000000 
#    y 0.000000 1.747880 0.000000 
#    z 0.000000 0.000000 1.611280 
# 
# From -- ./inp_files/58712.got.cif
#   From: 2010.05.17/outbox.cif.g08.bks.cpg/sg74_30_cif.got.tgz:58712.got - 2010.06.03 17:57:02.
