data_PCOD9537257
_publ_section_title
;
Structure prediction by ZEFSAII (Michael W. Deem and Ramdas Pophale) SiO2 
 PCOD9537257
Probable space group: I M M A
;
_chemical_formula_sum "Si O2"
_cell_formula_units_Z 64
_cell_length_a 9.727020
_cell_length_b 14.952128
_cell_length_c 20.190739
_cell_angle_alpha 90.000000
_cell_angle_beta 90.000000
_cell_angle_gamma 90.000000
_cell_volume 2936.533975
_symmetry_space_group_name_H-M "I M M A"
_symmetry_group_IT_number 74
_symmetry_cell_setting 'orthorhombic'
loop_
_space_group_symop_operation_xyz
x,y,z
-x,1/2-y,z
x,-y,-z
-x,1/2+y,-z
-x,-y,-z
x,1/2+y,-z
-x,y,z
x,1/2-y,z
1/2+x,1/2+y,1/2+z
1/2-x,-y,1/2+z
1/2+x,1/2-y,1/2-z
1/2-x,y,1/2-z
1/2-x,1/2-y,1/2-z
1/2+x,y,1/2-z
1/2-x,1/2+y,1/2+z
1/2+x,-y,1/2+z
loop_
_atom_site_type_symbol
_atom_site_label
_atom_site_fract_x
_atom_site_fract_y
_atom_site_fract_z
Si Si1 0.652466 0.146394 0.569062
Si Si2 0.342912 0.640824 0.187506
Si Si3 0.660592 0.356307 0.187607
Si Si4 0.654718 0.093357 0.039817
O O1 0.500000 0.104850 0.570517
O O2 0.636818 0.250000 0.587706
O O3 0.761640 0.110811 0.622255
O O4 0.723545 0.143358 0.497875
O O5 0.500000 0.607702 0.189870
O O6 0.351178 0.750000 0.187368
O O7 0.250000 0.615544 0.250000
O O8 0.500000 0.365062 0.204350
O O9 0.688575 0.250000 0.176395
O O10 0.750000 0.386594 0.250000
O O11 0.682998 0.406062 0.117961
O O12 0.500000 0.133044 0.031817
O O13 0.651625 0.000000 0.000000
#
# Coordination Sequence:
#
# PCOD9537257 Si02
#       4
#    16  16  16  16
#     4  10  20  33  51  76 104 137 180 227 276 334
#     4   9  16  27  45  69  98 131 168 213 261 308
#     4   9  18  34  58  86 113 143 184 235 287 338
#     4  10  21  37  56  79 110 147 184 225 281 348
#
# _framework density 21.794402000000002
#
# number of rings (size 3 to 8) (size 9 to 14) (size 15 to 20)
#    0.000    2.500    0.000    2.250    0.000    7.000 
#    0.000    3.750    0.000    3.000    0.000    0.000 
#    0.000    0.000    0.000    0.000    0.000    0.000 
#
# Total GULP energy -178567.720003 kJ/mol
# GULP energy per Si atom -5580.241250 kJ/mol
# Density = 2.174480 g / cm^3
# Si number density = 21.794402 Si / 1000 Ang^3
#
#
#
# Elastic Constant Matrix: (Units=GPa)
#
#
# Indices 1 2 3 4 5 6 
#
# 1 189.6160 20.2061 115.4638 0.0000 0.0000 0.0000
# 2 20.2061 57.3776 20.1851 0.0000 0.0000 0.0000
# 3 115.4638 20.1851 189.5397 0.0000 0.0000 0.0000
# 4 0.0000 0.0000 0.0000 16.0402 0.0000 0.0000
# 5 0.0000 0.0000 0.0000 0.0000 33.4719 0.0000
# 6 0.0000 0.0000 0.0000 0.0000 0.0000 -2.4766
#
#
#
# Elastic Compliance Matrix: (Units=1/GPa)
#
#
# Indices 1 2 3 4 5 6 
#
# 1 0.008464 -0.001212 -0.005027 0.000000 0.000000 0.000000
# 2 -0.001212 0.018280 -0.001208 0.000000 0.000000 0.000000
# 3 -0.005027 -0.001208 0.008467 0.000000 0.000000 0.000000
# 4 0.000000 0.000000 0.000000 0.062343 0.000000 0.000000
# 5 0.000000 0.000000 0.000000 0.000000 0.029876 0.000000
# 6 0.000000 0.000000 0.000000 0.000000 0.000000 -0.403782
#
#
# Mechanical properties :
#
#
# Convention : Reuss Voigt Hill
#
# Bulk Modulus (GPa) = 49.22158 83.13815 66.17987
# Shear Modulus (GPa) = -19.63215 28.11900 4.24342
#
# Velocity S-wave (km/s) = -3.00457 3.59582 1.39687
# Velocity P-wave (km/s) = 3.25529 7.44777 5.74744
#
# Compressibility (1/GPa) = 0.02031629
#
# Stress axis : x y z
#
# Youngs Moduli (GPa) = 118.14492 54.70342 118.10512
#
# Poissons Ratio (x) = 0.06631 0.59373
# Poissons Ratio (y) = 0.14322 0.14271
# Poissons Ratio (z) = 0.59393 0.06610
#
# Static dielectric constant tensor:
#      x y z
#    x 1.787200 0.000000 0.000000 
#    y 0.000000 1.859700 0.000000 
#    z 0.000000 0.000000 1.772240 
# 
# From -- ./inp_files/39068.got.cif
#   From: 2010.05.17/outbox.cif.g08.bks.cpg/sg74_20_cif.got.tgz:39068.got - 2010.06.03 17:57:02.
