data_PCOD9537781
_publ_section_title
;
Structure prediction by ZEFSAII (Michael W. Deem and Ramdas Pophale) SiO2 
 PCOD9537781
Probable space group: I M M A
;
_chemical_formula_sum "Si O2"
_cell_formula_units_Z 112
_cell_length_a 27.832959
_cell_length_b 21.367348
_cell_length_c 11.552461
_cell_angle_alpha 90.000000
_cell_angle_beta 90.000000
_cell_angle_gamma 90.000000
_cell_volume 6870.439413
_symmetry_space_group_name_H-M "I M M A"
_symmetry_group_IT_number 74
_symmetry_cell_setting 'orthorhombic'
loop_
_space_group_symop_operation_xyz
x,y,z
-x,1/2-y,z
x,-y,-z
-x,1/2+y,-z
-x,-y,-z
x,1/2+y,-z
-x,y,z
x,1/2-y,z
1/2+x,1/2+y,1/2+z
1/2-x,-y,1/2+z
1/2+x,1/2-y,1/2-z
1/2-x,y,1/2-z
1/2-x,1/2-y,1/2-z
1/2+x,y,1/2-z
1/2-x,1/2+y,1/2+z
1/2+x,-y,1/2+z
loop_
_atom_site_type_symbol
_atom_site_label
_atom_site_fract_x
_atom_site_fract_y
_atom_site_fract_z
Si Si1 0.154691 0.975312 0.313544
Si Si2 0.808579 0.084284 0.481031
Si Si3 0.147652 0.176655 0.049357
Si Si4 0.200316 0.061778 0.929232
Si Si5 0.055358 0.993032 0.191514
Si Si6 0.554300 0.106906 0.488833
Si Si7 0.197700 0.175740 0.287293
O O1 0.155252 0.922556 0.412508
O O2 0.185903 0.954024 0.202630
O O3 0.100575 0.991631 0.276635
O O4 0.179524 0.033140 0.381316
O O5 0.756072 0.071966 0.536503
O O6 0.812825 0.148174 0.412046
O O7 0.159551 0.250000 0.028906
O O8 0.092321 0.161348 0.027559
O O9 0.161817 0.161152 0.182280
O O10 0.175107 0.125628 0.971088
O O11 0.183343 0.000000 0.000000
O O12 0.000000 0.991249 0.236413
O O13 0.059513 0.055154 0.112597
O O14 0.061513 0.933539 0.105751
O O15 0.500000 0.130173 0.487692
O O16 0.200769 0.250000 0.294986
O O17 0.250000 0.150231 0.250000
#
# Coordination Sequence:
#
# PCOD9537781 Si02
#       7
#    16  16  16  16  16  16  16
#     4  11  22  34  51  81 111 138 177 230 262 317
#     4  11  23  33  51  77 106 143 190 216 264 314
#     4  11  22  34  55  83 109 140 176 219 274 323
#     4  12  21  34  53  77 109 144 178 222 266 320
#     4   9  17  32  56  82 107 139 174 217 275 323
#     4   9  17  32  54  82 110 136 170 217 274 326
#     4  10  20  35  53  72 102 141 179 220 266 322
#
# _framework density 16.301722999999999
#
# number of rings (size 3 to 8) (size 9 to 14) (size 15 to 20)
#    0.000    1.571    4.286    3.857    0.000    0.286 
#    0.000    2.143    0.000    2.571    0.000    0.000 
#    0.000    0.000    0.000    0.000    0.000    0.000 
#
# Total GULP energy -312096.886455 kJ/mol
# GULP energy per Si atom -5573.158687 kJ/mol
# Density = 1.626462 g / cm^3
# Si number density = 16.301723 Si / 1000 Ang^3
#
#
#
# Elastic Constant Matrix: (Units=GPa)
#
#
# Indices 1 2 3 4 5 6 
#
# 1 107.9215 26.2425 40.2144 0.0000 0.0000 0.0000
# 2 26.2425 46.2033 28.9755 0.0000 0.0000 0.0000
# 3 40.2144 28.9755 100.4136 0.0000 0.0000 0.0000
# 4 0.0000 0.0000 0.0000 28.4445 0.0000 0.0000
# 5 0.0000 0.0000 0.0000 0.0000 19.2894 0.0000
# 6 0.0000 0.0000 0.0000 0.0000 0.0000 22.2260
#
#
#
# Elastic Compliance Matrix: (Units=1/GPa)
#
#
# Indices 1 2 3 4 5 6 
#
# 1 0.011607 -0.004490 -0.003353 0.000000 0.000000 0.000000
# 2 -0.004490 0.028162 -0.006328 0.000000 0.000000 0.000000
# 3 -0.003353 -0.006328 0.013128 0.000000 0.000000 0.000000
# 4 0.000000 0.000000 0.000000 0.035156 0.000000 0.000000
# 5 0.000000 0.000000 0.000000 0.000000 0.051842 0.000000
# 6 0.000000 0.000000 0.000000 0.000000 0.000000 0.044992
#
#
# Mechanical properties :
#
#
# Convention : Reuss Voigt Hill
#
# Bulk Modulus (GPa) = 40.72519 49.48923 45.10721
# Shear Modulus (GPa) = 22.58200 24.59905 23.59053
#
# Velocity S-wave (km/s) = 3.72594 3.88878 3.80823
# Velocity P-wave (km/s) = 6.59898 7.11250 6.86055
#
# Compressibility (1/GPa) = 0.02455483
#
# Stress axis : x y z
#
# Youngs Moduli (GPa) = 86.15378 35.50828 76.17453
#
# Poissons Ratio (x) = 0.15943 0.25541
# Poissons Ratio (y) = 0.38682 0.48207
# Poissons Ratio (z) = 0.28886 0.22471
#
# Static dielectric constant tensor:
#      x y z
#    x 1.584590 0.000000 0.000000 
#    y 0.000000 1.569410 0.000000 
#    z 0.000000 0.000000 1.555520 
# 
# From -- ./inp_files/26479.got.cif
#   From: 2010.05.17/outbox.cif.g08.bks.cpg/sg74_14_cif.got.tgz:26479.got - 2010.06.03 17:57:02.
