data_PCOD9537913
_publ_section_title
;
Structure prediction by ZEFSAII (Michael W. Deem and Ramdas Pophale) SiO2 
 PCOD9537913
Probable space group: I M M A
;
_chemical_formula_sum "Si O2"
_cell_formula_units_Z 96
_cell_length_a 20.924775
_cell_length_b 8.515388
_cell_length_c 28.433396
_cell_angle_alpha 90.000000
_cell_angle_beta 90.000000
_cell_angle_gamma 90.000000
_cell_volume 5066.335799
_symmetry_space_group_name_H-M "I M M A"
_symmetry_group_IT_number 74
_symmetry_cell_setting 'orthorhombic'
loop_
_space_group_symop_operation_xyz
x,y,z
-x,1/2-y,z
x,-y,-z
-x,1/2+y,-z
-x,-y,-z
x,1/2+y,-z
-x,y,z
x,1/2-y,z
1/2+x,1/2+y,1/2+z
1/2-x,-y,1/2+z
1/2+x,1/2-y,1/2-z
1/2-x,y,1/2-z
1/2-x,1/2-y,1/2-z
1/2+x,y,1/2-z
1/2-x,1/2+y,1/2+z
1/2+x,-y,1/2+z
loop_
_atom_site_type_symbol
_atom_site_label
_atom_site_fract_x
_atom_site_fract_y
_atom_site_fract_z
Si Si1 0.185628 0.059908 0.222249
Si Si2 0.073992 0.061721 0.052115
Si Si3 0.799988 0.561783 0.551842
Si Si4 0.813584 0.063569 0.883583
Si Si5 0.427934 0.441350 0.101719
Si Si6 0.072150 0.058773 0.289927
O O1 0.183515 0.250000 0.219028
O O2 0.250000 0.017404 0.250000
O O3 0.125227 0.005790 0.253230
O O4 0.185671 0.992972 0.170055
O O5 0.078454 0.250000 0.052242
O O6 0.000000 0.017642 0.061549
O O7 0.122777 0.993354 0.089725
O O8 0.090342 0.000000 0.000000
O O9 0.785121 0.500000 0.500000
O O10 0.800166 0.750000 0.550982
O O11 0.746942 0.506932 0.588790
O O12 0.870196 0.505813 0.568751
O O13 0.809862 0.250000 0.885626
O O14 0.500000 0.492651 0.088918
O O15 0.428264 0.250000 0.101005
O O16 0.415106 0.488154 0.155984
O O17 0.073214 0.250000 0.289767
O O18 0.000000 0.009860 0.277657
#
# Coordination Sequence:
#
# PCOD9537913 Si02
#       6
#    16  16  16  16  16  16
#     4  10  20  35  56  81 108 142 186 232 278 328
#     4  10  21  39  63  88 114 145 183 228 280 338
#     4  11  22  37  57  81 111 146 186 231 279 332
#     4  12  25  39  56  80 113 150 189 233 280 333
#     4   8  15  30  54  83 112 143 180 223 271 323
#     4   8  14  27  50  79 107 135 172 218 265 315
#
# _framework density 18.948606000000002
#
# number of rings (size 3 to 8) (size 9 to 14) (size 15 to 20)
#    0.000    2.167    0.000    5.000    0.000    5.000 
#    0.000    1.667    0.000    1.500    0.000    4.667 
#    0.000    0.000    0.000    0.000    0.000    0.000 
#
# Total GULP energy -268063.283736 kJ/mol
# GULP energy per Si atom -5584.651744 kJ/mol
# Density = 1.890548 g / cm^3
# Si number density = 18.948606 Si / 1000 Ang^3
#
#
#
# Elastic Constant Matrix: (Units=GPa)
#
#
# Indices 1 2 3 4 5 6 
#
# 1 66.4255 17.8611 19.2384 0.0000 0.0000 0.0000
# 2 17.8611 34.9514 12.6963 0.0000 0.0000 0.0000
# 3 19.2384 12.6963 45.2833 0.0000 0.0000 0.0000
# 4 0.0000 0.0000 0.0000 29.2669 0.0000 0.0000
# 5 0.0000 0.0000 0.0000 0.0000 43.4020 0.0000
# 6 0.0000 0.0000 0.0000 0.0000 0.0000 2.1300
#
#
#
# Elastic Compliance Matrix: (Units=1/GPa)
#
#
# Indices 1 2 3 4 5 6 
#
# 1 0.018761 -0.007451 -0.005882 0.000000 0.000000 0.000000
# 2 -0.007451 0.034815 -0.006596 0.000000 0.000000 0.000000
# 3 -0.005882 -0.006596 0.026431 0.000000 0.000000 0.000000
# 4 0.000000 0.000000 0.000000 0.034168 0.000000 0.000000
# 5 0.000000 0.000000 0.000000 0.000000 0.023040 0.000000
# 6 0.000000 0.000000 0.000000 0.000000 0.000000 0.469483
#
#
# Mechanical properties :
#
#
# Convention : Reuss Voigt Hill
#
# Bulk Modulus (GPa) = 24.90611 27.36132 26.13371
# Shear Modulus (GPa) = 7.57645 21.41739 14.49692
#
# Velocity S-wave (km/s) = 2.00177 3.36562 2.76898
# Velocity P-wave (km/s) = 4.30295 5.43823 4.90355
#
# Compressibility (1/GPa) = 0.04015079
#
# Stress axis : x y z
#
# Youngs Moduli (GPa) = 53.30083 28.72341 37.83403
#
# Poissons Ratio (x) = 0.21402 0.22253
# Poissons Ratio (y) = 0.39715 0.24954
# Poissons Ratio (z) = 0.31349 0.18945
#
# Static dielectric constant tensor:
#      x y z
#    x 1.664850 0.000000 0.000000 
#    y 0.000000 1.650910 0.000000 
#    z 0.000000 0.000000 1.668610 
# 
# From -- ./inp_files/68129.got.cif
#   From: 2010.05.17/outbox.cif.g08.bks.cpg/sg74_35_cif.got.tgz:68129.got - 2010.06.03 17:57:02.
