data_PCOD9537237
_publ_section_title
;
Structure prediction by ZEFSAII (Michael W. Deem and Ramdas Pophale) SiO2 
 PCOD9537237
Probable space group: I M M A
;
_chemical_formula_sum "Si O2"
_cell_formula_units_Z 100
_cell_length_a 20.620031
_cell_length_b 16.838381
_cell_length_c 16.845957
_cell_angle_alpha 90.000000
_cell_angle_beta 90.000000
_cell_angle_gamma 90.000000
_cell_volume 5849.049997
_symmetry_space_group_name_H-M "I M M A"
_symmetry_group_IT_number 74
_symmetry_cell_setting 'orthorhombic'
loop_
_space_group_symop_operation_xyz
x,y,z
-x,1/2-y,z
x,-y,-z
-x,1/2+y,-z
-x,-y,-z
x,1/2+y,-z
-x,y,z
x,1/2-y,z
1/2+x,1/2+y,1/2+z
1/2-x,-y,1/2+z
1/2+x,1/2-y,1/2-z
1/2-x,y,1/2-z
1/2-x,1/2-y,1/2-z
1/2+x,y,1/2-z
1/2-x,1/2+y,1/2+z
1/2+x,-y,1/2+z
loop_
_atom_site_type_symbol
_atom_site_label
_atom_site_fract_x
_atom_site_fract_y
_atom_site_fract_z
Si Si1 0.252202 0.582851 0.454788
Si Si2 0.396100 0.883080 0.429143
Si Si3 0.232750 0.159676 0.385953
Si Si4 0.572063 0.509443 0.697659
Si Si5 0.110897 0.157567 0.111579
Si Si6 0.809063 0.000965 0.690626
Si Si7 0.500000 0.750000 0.384275
O O1 0.271975 0.500000 0.500000
O O2 0.317803 0.623083 0.421993
O O3 0.221492 0.639065 0.521492
O O4 0.203923 0.554987 0.386180
O O5 0.407240 0.873370 0.523528
O O6 0.442505 0.818633 0.389171
O O7 0.412965 0.964724 0.385140
O O8 0.215226 0.250000 0.365558
O O9 0.311009 0.150954 0.377747
O O10 0.198421 0.091211 0.335656
O O11 0.500000 0.489975 0.723843
O O12 0.579099 0.602068 0.676869
O O13 0.624969 0.485793 0.762489
O O14 0.093196 0.250000 0.115834
O O15 0.750000 0.017189 0.750000
#
# Coordination Sequence:
#
# PCOD9537237 Si02
#       7
#    16  16  16  16  16  16   4
#     4   9  18  35  57  77 101 135 181 230 257 307
#     4  11  20  35  49  74 103 150 187 212 250 306
#     4   9  18  33  58  81 104 137 178 229 268 313
#     4  12  24  34  52  77 111 150 181 216 271 332
#     4  10  20  33  50  80 112 144 185 216 251 313
#     4  11  19  35  55  80 108 142 180 224 269 314
#     4  12  24  32  50  74 114 158 180 218 244 312
#
# _framework density 17.096795
#
# number of rings (size 3 to 8) (size 9 to 14) (size 15 to 20)
#    0.000    1.600    4.800    2.400    2.240    1.920 
#    0.000    0.000    1.760    5.760    0.000    0.000 
#    0.000    0.000    0.000    0.000    0.000    0.000 
#
# Total GULP energy -278361.835006 kJ/mol
# GULP energy per Si atom -5567.236700 kJ/mol
# Density = 1.705788 g / cm^3
# Si number density = 17.096795 Si / 1000 Ang^3
#
#
#
# Elastic Constant Matrix: (Units=GPa)
#
#
# Indices 1 2 3 4 5 6 
#
# 1 75.6776 4.7010 26.2694 0.0000 0.0000 0.0000
# 2 4.7010 39.6529 1.5815 0.0000 0.0000 0.0000
# 3 26.2694 1.5815 32.1067 0.0000 0.0000 0.0000
# 4 0.0000 0.0000 0.0000 11.7826 0.0000 0.0000
# 5 0.0000 0.0000 0.0000 0.0000 9.6199 0.0000
# 6 0.0000 0.0000 0.0000 0.0000 0.0000 14.2758
#
#
#
# Elastic Compliance Matrix: (Units=1/GPa)
#
#
# Indices 1 2 3 4 5 6 
#
# 1 0.018556 -0.001598 -0.015104 0.000000 0.000000 0.000000
# 2 -0.001598 0.025406 0.000056 0.000000 0.000000 0.000000
# 3 -0.015104 0.000056 0.043501 0.000000 0.000000 0.000000
# 4 0.000000 0.000000 0.000000 0.084871 0.000000 0.000000
# 5 0.000000 0.000000 0.000000 0.000000 0.103951 0.000000
# 6 0.000000 0.000000 0.000000 0.000000 0.000000 0.070049
#
#
# Mechanical properties :
#
#
# Convention : Reuss Voigt Hill
#
# Bulk Modulus (GPa) = 18.45971 23.61567 21.03769
# Shear Modulus (GPa) = 12.57284 14.79467 13.68376
#
# Velocity S-wave (km/s) = 2.71475 2.94487 2.83215
# Velocity P-wave (km/s) = 4.54391 5.04043 4.79860
#
# Compressibility (1/GPa) = 0.05417203
#
# Stress axis : x y z
#
# Youngs Moduli (GPa) = 53.89086 39.36078 22.98793
#
# Poissons Ratio (x) = 0.06288 0.34720
# Poissons Ratio (y) = 0.08609 -0.00128
# Poissons Ratio (z) = 0.81395 -0.00219
#
# Static dielectric constant tensor:
#      x y z
#    x 1.570450 0.000000 0.000000 
#    y 0.000000 1.605030 0.000000 
#    z 0.000000 0.000000 1.596490 
# 
# From -- ./inp_files/35491.got.cif
#   From: 2010.05.17/outbox.cif.g08.bks.cpg/sg74_18_cif.got.tgz:35491.got - 2010.06.03 17:57:02.
