data_PCOD9537281
_publ_section_title
;
Structure prediction by ZEFSAII (Michael W. Deem and Ramdas Pophale) SiO2 
 PCOD9537281
Probable space group: I M M A
;
_chemical_formula_sum "Si O2"
_cell_formula_units_Z 88
_cell_length_a 14.151501
_cell_length_b 23.636371
_cell_length_c 14.178660
_cell_angle_alpha 90.000000
_cell_angle_beta 90.000000
_cell_angle_gamma 90.000000
_cell_volume 4742.621796
_symmetry_space_group_name_H-M "I M M A"
_symmetry_group_IT_number 74
_symmetry_cell_setting 'orthorhombic'
loop_
_space_group_symop_operation_xyz
x,y,z
-x,1/2-y,z
x,-y,-z
-x,1/2+y,-z
-x,-y,-z
x,1/2+y,-z
-x,y,z
x,1/2-y,z
1/2+x,1/2+y,1/2+z
1/2-x,-y,1/2+z
1/2+x,1/2-y,1/2-z
1/2-x,y,1/2-z
1/2-x,1/2-y,1/2-z
1/2+x,y,1/2-z
1/2-x,1/2+y,1/2+z
1/2+x,-y,1/2+z
loop_
_atom_site_type_symbol
_atom_site_label
_atom_site_fract_x
_atom_site_fract_y
_atom_site_fract_z
Si Si1 0.112559 0.250000 0.239272
Si Si2 0.385693 0.630528 0.055795
Si Si3 0.803350 0.065466 0.384627
Si Si4 0.886277 0.750000 0.531823
Si Si5 0.104678 0.484028 0.109086
Si Si6 0.387556 0.547346 0.208466
Si Si7 0.250000 0.843141 0.750000
O O1 0.128691 0.250000 0.354490
O O2 0.172284 0.196901 0.200876
O O3 0.000000 0.250000 0.222475
O O4 0.500000 0.631894 0.051081
O O5 0.356950 0.605652 0.158347
O O6 0.347834 0.583338 0.983024
O O7 0.352051 0.692239 0.019623
O O8 0.815530 0.117664 0.314841
O O9 0.690509 0.058855 0.385434
O O10 0.844175 0.007364 0.343663
O O11 0.000000 0.750000 0.521479
O O12 0.128985 0.535718 0.180513
O O13 0.000000 0.463232 0.137329
O O14 0.100802 0.500000 0.000000
O O15 0.500000 0.544762 0.195148
#
# Coordination Sequence:
#
# PCOD9537281 Si02
#       7
#     8  16  16   8  16  16   8
#     4  10  21  37  52  73 111 152 186 229 272 320
#     4  10  20  33  53  81 111 142 177 225 281 333
#     4  12  20  33  52  79 110 140 179 221 277 331
#     4   9  17  31  51  74 104 142 179 218 272 327
#     4  10  21  35  50  72 105 144 180 215 265 328
#     4  10  20  33  51  79 111 138 173 224 282 339
#     4  11  22  32  52  80 106 145 194 216 270 339
#
# _framework density 18.555137999999999
#
# number of rings (size 3 to 8) (size 9 to 14) (size 15 to 20)
#    0.000    1.636    3.636    2.182    0.000    2.909 
#    0.000    0.000    0.000    0.000    0.000   12.727 
#    0.000   13.091    0.000    0.000    0.000    0.000 
#
# Total GULP energy -244966.801503 kJ/mol
# GULP energy per Si atom -5567.427307 kJ/mol
# Density = 1.851291 g / cm^3
# Si number density = 18.555138 Si / 1000 Ang^3
#
#
#
# Elastic Constant Matrix: (Units=GPa)
#
#
# Indices 1 2 3 4 5 6 
#
# 1 35.4036 4.7288 0.2219 0.0000 0.0000 0.0000
# 2 4.7288 70.5521 31.6733 -0.0001 0.0000 0.0000
# 3 0.2219 31.6733 88.6006 -0.0001 0.0000 0.0000
# 4 0.0000 -0.0001 -0.0001 22.3943 0.0000 0.0000
# 5 0.0000 0.0000 0.0000 0.0000 14.7552 0.0000
# 6 0.0000 0.0000 0.0000 0.0000 0.0000 24.2909
#
#
#
# Elastic Compliance Matrix: (Units=1/GPa)
#
#
# Indices 1 2 3 4 5 6 
#
# 1 0.028540 -0.002240 0.000729 0.000000 0.000000 0.000000
# 2 -0.002240 0.017059 -0.006093 0.000000 0.000000 0.000000
# 3 0.000729 -0.006093 0.013463 0.000000 0.000000 0.000000
# 4 0.000000 0.000000 0.000000 0.044654 0.000000 0.000000
# 5 0.000000 0.000000 0.000000 0.000000 0.067773 0.000000
# 6 0.000000 0.000000 0.000000 0.000000 0.000000 0.041168
#
#
# Mechanical properties :
#
#
# Convention : Reuss Voigt Hill
#
# Bulk Modulus (GPa) = 22.80239 29.75601 26.27920
# Shear Modulus (GPa) = 20.61997 22.81689 21.71843
#
# Velocity S-wave (km/s) = 3.33720 3.51048 3.42494
# Velocity P-wave (km/s) = 5.21200 5.70111 5.46203
#
# Compressibility (1/GPa) = 0.04385505
#
# Stress axis : x y z
#
# Youngs Moduli (GPa) = 35.03803 58.61879 74.27831
#
# Poissons Ratio (x) = 0.13133 -0.05418
# Poissons Ratio (y) = 0.07850 0.45257
# Poissons Ratio (z) = -0.02556 0.35716
#
# Static dielectric constant tensor:
#      x y z
#    x 1.662720 0.000000 0.000000 
#    y 0.000000 1.687170 0.000000 
#    z 0.000000 0.000000 1.731100 
# 
# From -- ./inp_files/32254.got.cif
#   From: 2010.05.17/outbox.cif.g08.bks.cpg/sg74_17_cif.got.tgz:32254.got - 2010.06.03 17:57:02.
