data_PCOD9537202
_publ_section_title
;
Structure prediction by ZEFSAII (Michael W. Deem and Ramdas Pophale) SiO2 
 PCOD9537202
Probable space group: I M M A
;
_chemical_formula_sum "Si O2"
_cell_formula_units_Z 112
_cell_length_a 14.301856
_cell_length_b 25.629870
_cell_length_c 16.955032
_cell_angle_alpha 90.000000
_cell_angle_beta 90.000000
_cell_angle_gamma 90.000000
_cell_volume 6214.946838
_symmetry_space_group_name_H-M "I M M A"
_symmetry_group_IT_number 74
_symmetry_cell_setting 'orthorhombic'
loop_
_space_group_symop_operation_xyz
x,y,z
-x,1/2-y,z
x,-y,-z
-x,1/2+y,-z
-x,-y,-z
x,1/2+y,-z
-x,y,z
x,1/2-y,z
1/2+x,1/2+y,1/2+z
1/2-x,-y,1/2+z
1/2+x,1/2-y,1/2-z
1/2-x,y,1/2-z
1/2-x,1/2-y,1/2-z
1/2+x,y,1/2-z
1/2-x,1/2+y,1/2+z
1/2+x,-y,1/2+z
loop_
_atom_site_type_symbol
_atom_site_label
_atom_site_fract_x
_atom_site_fract_y
_atom_site_fract_z
Si Si1 0.393585 0.155153 0.292829
Si Si2 0.894008 0.992119 0.593907
Si Si3 0.282792 0.309823 0.436567
Si Si4 0.270028 0.443916 0.663925
Si Si5 0.891887 0.958117 0.870223
Si Si6 0.888318 0.602725 0.026320
Si Si7 0.109729 0.871048 0.611910
O O1 0.500000 0.172366 0.310498
O O2 0.321529 0.186217 0.346691
O O3 0.385172 0.095102 0.321002
O O4 0.381878 0.153434 0.199296
O O5 0.864369 0.932508 0.612964
O O6 0.000000 0.997507 0.623888
O O7 0.894042 0.000000 0.500000
O O8 0.827088 0.035693 0.628681
O O9 0.274903 0.250000 0.459906
O O10 0.356578 0.342936 0.487597
O O11 0.183876 0.339881 0.440338
O O12 0.250000 0.421566 0.750000
O O13 0.331078 0.497001 0.667984
O O14 0.327933 0.408522 0.603555
O O15 0.000000 0.974705 0.872152
O O16 0.865539 0.941402 0.959610
O O17 0.000000 0.601312 0.038955
O O18 0.000000 0.868005 0.588241
#
# Coordination Sequence:
#
# PCOD9537202 Si02
#       7
#    16  16  16  16  16  16  16
#     4   9  18  31  48  75 111 145 178 218 265 317
#     4  10  20  34  52  74 105 147 187 212 236 290
#     4  11  22  36  56  77  98 134 185 234 278 326
#     4  12  22  31  51  80 110 140 172 212 260 313
#     4   9  17  31  52  77 107 145 181 211 250 305
#     4  10  22  39  57  79 108 140 177 224 272 316
#     4  10  20  33  49  74 112 150 180 217 264 311
#
# _framework density 18.021072
#
# number of rings (size 3 to 8) (size 9 to 14) (size 15 to 20)
#    0.000    1.857    0.000    6.857    0.000    6.000 
#    0.000    1.429    0.000    0.429    0.000    0.000 
#    0.000    0.000    0.000    0.000    0.000    0.000 
#
# Total GULP energy -312767.585636 kJ/mol
# GULP energy per Si atom -5585.135458 kJ/mol
# Density = 1.798005 g / cm^3
# Si number density = 18.021072 Si / 1000 Ang^3
#
#
#
# Elastic Constant Matrix: (Units=GPa)
#
#
# Indices 1 2 3 4 5 6 
#
# 1 76.8259 29.0612 16.3070 0.0000 0.0000 0.0000
# 2 29.0612 55.2244 4.8790 -0.0001 0.0000 0.0000
# 3 16.3070 4.8790 27.5378 0.0000 0.0000 0.0000
# 4 0.0000 -0.0001 0.0000 10.9836 0.0000 0.0000
# 5 0.0000 0.0000 0.0000 0.0000 16.7188 0.0000
# 6 0.0000 0.0000 0.0000 0.0000 0.0000 -10.3878
#
#
#
# Elastic Compliance Matrix: (Units=1/GPa)
#
#
# Indices 1 2 3 4 5 6 
#
# 1 0.018326 -0.008823 -0.009289 0.000000 0.000000 0.000000
# 2 -0.008823 0.022644 0.001213 0.000000 0.000000 0.000000
# 3 -0.009289 0.001213 0.041599 0.000000 0.000000 0.000000
# 4 0.000000 0.000000 0.000000 0.091045 0.000000 0.000000
# 5 0.000000 0.000000 0.000000 0.000000 0.059813 0.000000
# 6 0.000000 0.000000 0.000000 0.000000 0.000000 -0.096266
#
#
# Mechanical properties :
#
#
# Convention : Reuss Voigt Hill
#
# Bulk Modulus (GPa) = 20.50399 28.89806 24.70103
# Shear Modulus (GPa) = 26.70733 10.75231 18.72982
#
# Velocity S-wave (km/s) = 3.85386 2.44530 3.22736
# Velocity P-wave (km/s) = 5.58618 4.90338 5.25588
#
# Compressibility (1/GPa) = 0.04877100
#
# Stress axis : x y z
#
# Youngs Moduli (GPa) = 54.56876 44.16225 24.03889
#
# Poissons Ratio (x) = 0.38964 0.22329
# Poissons Ratio (y) = 0.48146 -0.02915
# Poissons Ratio (z) = 0.50686 -0.05356
#
# Static dielectric constant tensor:
#      x y z
#    x 1.663080 0.000000 0.000000 
#    y 0.000000 1.599030 0.000000 
#    z 0.000000 0.000000 1.641640 
# 
# From -- ./inp_files/32904.got.cif
#   From: 2010.05.17/outbox.cif.g08.bks.cpg/sg74_17_cif.got.tgz:32904.got - 2010.06.03 17:57:02.
