data_PCOD9537771
_publ_section_title
;
Structure prediction by ZEFSAII (Michael W. Deem and Ramdas Pophale) SiO2 
 PCOD9537771
Probable space group: I M M A
;
_chemical_formula_sum "Si O2"
_cell_formula_units_Z 116
_cell_length_a 23.698888
_cell_length_b 7.504695
_cell_length_c 27.475226
_cell_angle_alpha 90.000000
_cell_angle_beta 90.000000
_cell_angle_gamma 90.000000
_cell_volume 4886.549344
_symmetry_space_group_name_H-M "I M M A"
_symmetry_group_IT_number 74
_symmetry_cell_setting 'orthorhombic'
loop_
_space_group_symop_operation_xyz
x,y,z
-x,1/2-y,z
x,-y,-z
-x,1/2+y,-z
-x,-y,-z
x,1/2+y,-z
-x,y,z
x,1/2-y,z
1/2+x,1/2+y,1/2+z
1/2-x,-y,1/2+z
1/2+x,1/2-y,1/2-z
1/2-x,y,1/2-z
1/2-x,1/2-y,1/2-z
1/2+x,y,1/2-z
1/2-x,1/2+y,1/2+z
1/2+x,-y,1/2+z
loop_
_atom_site_type_symbol
_atom_site_label
_atom_site_fract_x
_atom_site_fract_y
_atom_site_fract_z
Si Si1 0.591619 0.534659 0.423125
Si Si2 0.561095 0.466929 0.118949
Si Si3 0.754325 0.453219 0.697425
Si Si4 0.000000 0.250000 0.044318
Si Si5 0.834024 0.960958 0.555737
Si Si6 0.436308 0.537274 0.309685
Si Si7 0.212956 0.041818 0.903568
Si Si8 0.622629 0.957647 0.789073
O O1 0.582097 0.750000 0.431484
O O2 0.549028 0.407453 0.450935
O O3 0.581038 0.498281 0.365163
O O4 0.656957 0.480019 0.430871
O O5 0.500000 0.531154 0.102342
O O6 0.560450 0.250000 0.115139
O O7 0.614794 0.531091 0.088547
O O8 0.571691 0.511142 0.175523
O O9 0.732101 0.250000 0.702491
O O10 0.750000 0.543353 0.750000
O O11 0.724623 0.535373 0.650466
O O12 0.821579 0.446563 0.691543
O O13 0.830919 0.750000 0.563772
O O14 0.846750 0.000000 0.500000
O O15 0.771889 0.029552 0.568693
O O16 0.500000 0.466689 0.301334
O O17 0.438508 0.750000 0.306554
O O18 0.393782 0.480953 0.267111
O O19 0.200917 0.250000 0.895371
O O20 0.633798 0.750000 0.797504
#
# Coordination Sequence:
#
# PCOD9537771 Si02
#       8
#    16  16  16   4  16  16  16  16
#     4  10  22  39  59  90 131 169 215 267 314 373
#     4   9  19  37  57  83 120 160 198 254 327 384
#     4  10  20  36  55  78 115 165 208 248 310 374
#     4  12  22  36  64  94 128 176 218 260 320 374
#     4  11  23  41  66  92 123 156 205 264 323 389
#     4  10  20  35  51  73 114 161 211 261 308 362
#     4  10  21  39  63  89 126 166 206 258 315 375
#     4  11  21  32  51  80 113 155 204 262 313 371
#
# _framework density 23.738634000000001
#
# number of rings (size 3 to 8) (size 9 to 14) (size 15 to 20)
#    0.000    1.793    2.069    2.276    1.931    3.586 
#    0.000    0.000    0.000    3.724    0.000    0.483 
#    0.000    0.000    0.000    0.000    0.000    0.000 
#
# Total GULP energy -323591.293068 kJ/mol
# GULP energy per Si atom -5579.160225 kJ/mol
# Density = 2.368460 g / cm^3
# Si number density = 23.738634 Si / 1000 Ang^3
#
#
#
# Elastic Constant Matrix: (Units=GPa)
#
#
# Indices 1 2 3 4 5 6 
#
# 1 164.5228 25.4977 23.2207 0.0000 0.0000 0.0000
# 2 25.4977 89.6434 11.4113 0.0000 0.0000 0.0000
# 3 23.2207 11.4113 83.4275 0.0000 0.0000 0.0000
# 4 0.0000 0.0000 0.0000 -6.9741 0.0000 0.0000
# 5 0.0000 0.0000 0.0000 0.0000 3.6586 0.0000
# 6 0.0000 0.0000 0.0000 0.0000 0.0000 38.1374
#
#
#
# Elastic Compliance Matrix: (Units=1/GPa)
#
#
# Indices 1 2 3 4 5 6 
#
# 1 0.006562 -0.001663 -0.001599 0.000000 0.000000 0.000000
# 2 -0.001663 0.011774 -0.001148 0.000000 0.000000 0.000000
# 3 -0.001599 -0.001148 0.012588 0.000000 0.000000 0.000000
# 4 0.000000 0.000000 0.000000 -0.143389 0.000000 0.000000
# 5 0.000000 0.000000 0.000000 0.000000 0.273329 0.000000
# 6 0.000000 0.000000 0.000000 0.000000 0.000000 0.026221
#
#
# Mechanical properties :
#
#
# Convention : Reuss Voigt Hill
#
# Bulk Modulus (GPa) = 45.23732 50.87258 48.05495
# Shear Modulus (GPa) = 24.59752 25.46199 25.02976
#
# Velocity S-wave (km/s) = 3.22247 3.27861 3.25066
# Velocity P-wave (km/s) = 5.73964 5.98408 5.86313
#
# Compressibility (1/GPa) = 0.02210564
#
# Stress axis : x y z
#
# Youngs Moduli (GPa) = 152.40304 84.93027 79.43790
#
# Poissons Ratio (x) = 0.14122 0.12701
# Poissons Ratio (y) = 0.25342 0.09117
# Poissons Ratio (z) = 0.24367 0.09747
#
# Static dielectric constant tensor:
#      x y z
#    x 1.936760 0.000000 0.000000 
#    y 0.000000 1.933570 0.000000 
#    z 0.000000 0.000000 1.907250 
# 
# From -- ./inp_files/73738.got.cif
#   From: 2010.05.17/outbox.cif.g08.bks.cpg/sg74_37_cif.got.tgz:73738.got - 2010.06.03 17:57:02.
