data_PCOD9537597
_publ_section_title
;
Structure prediction by ZEFSAII (Michael W. Deem and Ramdas Pophale) SiO2 
 PCOD9537597
Probable space group: I M M A
;
_chemical_formula_sum "Si O2"
_cell_formula_units_Z 64
_cell_length_a 9.274439
_cell_length_b 15.031094
_cell_length_c 20.276471
_cell_angle_alpha 90.000000
_cell_angle_beta 90.000000
_cell_angle_gamma 90.000000
_cell_volume 2826.640718
_symmetry_space_group_name_H-M "I M M A"
_symmetry_group_IT_number 74
_symmetry_cell_setting 'orthorhombic'
loop_
_space_group_symop_operation_xyz
x,y,z
-x,1/2-y,z
x,-y,-z
-x,1/2+y,-z
-x,-y,-z
x,1/2+y,-z
-x,y,z
x,1/2-y,z
1/2+x,1/2+y,1/2+z
1/2-x,-y,1/2+z
1/2+x,1/2-y,1/2-z
1/2-x,y,1/2-z
1/2-x,1/2-y,1/2-z
1/2+x,y,1/2-z
1/2-x,1/2+y,1/2+z
1/2+x,-y,1/2+z
loop_
_atom_site_type_symbol
_atom_site_label
_atom_site_fract_x
_atom_site_fract_y
_atom_site_fract_z
Si Si1 0.158712 0.351632 0.937731
Si Si2 0.337143 0.858870 0.185678
Si Si3 0.830160 0.083451 0.448578
Si Si4 0.328396 0.357299 0.319648
O O1 0.138908 0.250000 0.916338
O O2 0.256846 0.390177 0.879839
O O3 0.000000 0.393643 0.943784
O O4 0.242282 0.348485 0.005942
O O5 0.500000 0.892006 0.186481
O O6 0.343975 0.750000 0.186176
O O7 0.250000 0.886032 0.250000
O O8 0.751206 0.089924 0.378413
O O9 0.000000 0.101451 0.440375
O O10 0.818122 0.000000 0.500000
O O11 0.500000 0.377127 0.317336
O O12 0.313643 0.250000 0.331384
O O13 0.250000 0.376086 0.250000
#
# Coordination Sequence:
#
# PCOD9537597 Si02
#       4
#    16  16  16  16
#     4  10  20  34  54  80 108 142 188 239 291 351
#     4   9  16  27  45  70 101 136 174 219 269 319
#     4  11  24  40  58  84 120 159 198 243 300 366
#     4  10  21  39  66  98 128 161 205 258 315 373
#
# _framework density 22.641717
#
# number of rings (size 3 to 8) (size 9 to 14) (size 15 to 20)
#    0.000    2.000    0.000    3.750    0.000   11.000 
#    0.000    1.250    0.000    6.000    0.000    0.000 
#    0.000    0.000    0.000    0.000    0.000    0.000 
#
# Total GULP energy -178611.394037 kJ/mol
# GULP energy per Si atom -5581.606064 kJ/mol
# Density = 2.259018 g / cm^3
# Si number density = 22.641717 Si / 1000 Ang^3
#
#
#
# Elastic Constant Matrix: (Units=GPa)
#
#
# Indices 1 2 3 4 5 6 
#
# 1 241.7069 52.8918 133.5184 0.0000 0.0000 0.0000
# 2 52.8918 42.5786 33.6742 0.0000 0.0000 0.0000
# 3 133.5184 33.6742 229.9298 0.0000 0.0000 0.0000
# 4 0.0000 0.0000 0.0000 17.0052 0.0000 0.0000
# 5 0.0000 0.0000 0.0000 0.0000 41.1051 0.0000
# 6 0.0000 0.0000 0.0000 0.0000 0.0000 -1.8748
#
#
#
# Elastic Compliance Matrix: (Units=1/GPa)
#
#
# Indices 1 2 3 4 5 6 
#
# 1 0.007427 -0.006576 -0.003349 0.000000 0.000000 0.000000
# 2 -0.006576 0.032386 -0.000924 0.000000 0.000000 0.000000
# 3 -0.003349 -0.000924 0.006429 0.000000 0.000000 0.000000
# 4 0.000000 0.000000 0.000000 0.058805 0.000000 0.000000
# 5 0.000000 0.000000 0.000000 0.000000 0.024328 0.000000
# 6 0.000000 0.000000 0.000000 0.000000 0.000000 -0.533380
#
#
# Mechanical properties :
#
#
# Convention : Reuss Voigt Hill
#
# Bulk Modulus (GPa) = 40.74613 106.04271 73.39442
# Shear Modulus (GPa) = -13.36457 30.85581 8.74562
#
# Velocity S-wave (km/s) = -2.43217 3.69560 1.96749
# Velocity P-wave (km/s) = 3.18557 8.07135 6.13574
#
# Compressibility (1/GPa) = 0.02454221
#
# Stress axis : x y z
#
# Youngs Moduli (GPa) = 134.65241 30.87725 155.53381
#
# Poissons Ratio (x) = 0.20306 0.52094
# Poissons Ratio (y) = 0.88553 0.14375
# Poissons Ratio (z) = 0.45100 0.02854
#
# Static dielectric constant tensor:
#      x y z
#    x 1.813940 0.000000 0.000000 
#    y 0.000000 1.957900 0.000000 
#    z 0.000000 0.000000 1.905330 
# 
# From -- ./inp_files/48008.got.cif
#   From: 2010.05.17/outbox.cif.g08.bks.cpg/sg74_25_cif.got.tgz:48008.got - 2010.06.03 17:57:02.
