data_PCOD9537280
_publ_section_title
;
Structure prediction by ZEFSAII (Michael W. Deem and Ramdas Pophale) SiO2 
 PCOD9537280
Probable space group: I M M A
;
_chemical_formula_sum "Si O2"
_cell_formula_units_Z 116
_cell_length_a 23.829385
_cell_length_b 8.561858
_cell_length_c 30.053834
_cell_angle_alpha 90.000000
_cell_angle_beta 90.000000
_cell_angle_gamma 90.000000
_cell_volume 6131.697736
_symmetry_space_group_name_H-M "I M M A"
_symmetry_group_IT_number 74
_symmetry_cell_setting 'orthorhombic'
loop_
_space_group_symop_operation_xyz
x,y,z
-x,1/2-y,z
x,-y,-z
-x,1/2+y,-z
-x,-y,-z
x,1/2+y,-z
-x,y,z
x,1/2-y,z
1/2+x,1/2+y,1/2+z
1/2-x,-y,1/2+z
1/2+x,1/2-y,1/2-z
1/2-x,y,1/2-z
1/2-x,1/2-y,1/2-z
1/2+x,y,1/2-z
1/2-x,1/2+y,1/2+z
1/2+x,-y,1/2+z
loop_
_atom_site_type_symbol
_atom_site_label
_atom_site_fract_x
_atom_site_fract_y
_atom_site_fract_z
Si Si1 0.439278 0.938101 0.354672
Si Si2 0.566409 0.926782 0.161699
Si Si3 0.399636 0.935345 0.930539
Si Si4 0.084474 0.927820 0.758630
Si Si5 0.000000 0.500000 0.500000
Si Si6 0.317054 0.436230 0.619003
Si Si7 0.224695 0.938223 0.451777
Si Si8 0.712164 0.570777 0.711883
O O1 0.500000 0.991286 0.372897
O O2 0.437844 0.750000 0.356890
O O3 0.381752 0.997097 0.378035
O O4 0.437662 0.985703 0.302647
O O5 0.500000 0.921990 0.153893
O O6 0.589082 0.750000 0.158913
O O7 0.591168 0.027943 0.121576
O O8 0.574266 0.991577 0.211439
O O9 0.402217 0.750000 0.938658
O O10 0.449822 0.005786 0.960998
O O11 0.337981 0.999100 0.942246
O O12 0.063503 0.750000 0.757344
O O13 0.150576 0.922263 0.767557
O O14 0.320982 0.250000 0.613567
O O15 0.272965 0.493764 0.582383
O O16 0.290625 0.476798 0.666624
O O17 0.222370 0.750000 0.450712
O O18 0.240818 0.000000 0.500000
O O19 0.730982 0.750000 0.702810
O O20 0.750000 0.498488 0.750000
#
# Coordination Sequence:
#
# PCOD9537280 Si02
#       8
#    16  16  16  16   4  16  16  16
#     4   9  17  33  58  85 115 153 193 233 282 339
#     4  11  24  39  55  78 111 148 188 233 284 337
#     4  12  26  43  65  86 111 146 188 239 294 347
#     4  10  20  33  51  78 114 152 192 235 280 334
#     4  12  26  44  68  90 114 140 192 244 298 356
#     4   9  20  37  57  85 115 147 191 239 285 343
#     4  11  24  42  63  88 116 149 191 237 292 349
#     4   9  19  34  51  76 109 150 192 233 281 338
#
# _framework density 18.918088999999998
#
# number of rings (size 3 to 8) (size 9 to 14) (size 15 to 20)
#    0.000    1.793    1.379    2.276    1.931    6.345 
#    0.000    0.000    0.000    0.414    0.000    0.000 
#    0.000    0.000    0.000    0.000    0.000    0.138 
#
# Total GULP energy -322952.839952 kJ/mol
# GULP energy per Si atom -5568.152413 kJ/mol
# Density = 1.887503 g / cm^3
# Si number density = 18.918089 Si / 1000 Ang^3
#
#
#
# Elastic Constant Matrix: (Units=GPa)
#
#
# Indices 1 2 3 4 5 6 
#
# 1 149.6090 16.1814 86.3935 0.0000 0.0000 0.0000
# 2 16.1814 23.1974 9.4322 0.0000 0.0000 0.0000
# 3 86.3935 9.4322 94.4577 0.0000 0.0000 0.0000
# 4 0.0000 0.0000 0.0000 19.7563 0.0000 0.0000
# 5 0.0000 0.0000 0.0000 0.0000 102.9114 0.0000
# 6 0.0000 0.0000 0.0000 0.0000 0.0000 14.1070
#
#
#
# Elastic Compliance Matrix: (Units=1/GPa)
#
#
# Indices 1 2 3 4 5 6 
#
# 1 0.014700 -0.004990 -0.012947 0.000000 0.000000 0.000000
# 2 -0.004990 0.046626 -0.000092 0.000000 0.000000 0.000000
# 3 -0.012947 -0.000092 0.022437 0.000000 0.000000 0.000000
# 4 0.000000 0.000000 0.000000 0.050617 0.000000 0.000000
# 5 0.000000 0.000000 0.000000 0.000000 0.009717 0.000000
# 6 0.000000 0.000000 0.000000 0.000000 0.000000 0.070887
#
#
# Mechanical properties :
#
#
# Convention : Reuss Voigt Hill
#
# Bulk Modulus (GPa) = 20.96152 54.58647 37.77400
# Shear Modulus (GPa) = 18.73051 37.70542 28.21796
#
# Velocity S-wave (km/s) = 3.14997 4.46924 3.86630
# Velocity P-wave (km/s) = 4.93295 7.45312 6.31993
#
# Compressibility (1/GPa) = 0.04770646
#
# Stress axis : x y z
#
# Youngs Moduli (GPa) = 68.02694 21.44706 44.56837
#
# Poissons Ratio (x) = 0.10702 0.57702
# Poissons Ratio (y) = 0.33944 0.00411
# Poissons Ratio (z) = 0.88073 0.00198
#
# Static dielectric constant tensor:
#      x y z
#    x 1.698650 0.000000 0.000000 
#    y 0.000000 1.684300 0.000000 
#    z 0.000000 0.000000 1.637190 
# 
# From -- ./inp_files/68747.got.cif
#   From: 2010.05.17/outbox.cif.g08.bks.cpg/sg74_35_cif.got.tgz:68747.got - 2010.06.03 17:57:02.
