data_PCOD9537696
_publ_section_title
;
Structure prediction by ZEFSAII (Michael W. Deem and Ramdas Pophale) SiO2 
 PCOD9537696
Probable space group: I M M A
;
_chemical_formula_sum "Si O2"
_cell_formula_units_Z 116
_cell_length_a 25.405272
_cell_length_b 8.061730
_cell_length_c 29.714229
_cell_angle_alpha 90.000000
_cell_angle_beta 90.000000
_cell_angle_gamma 90.000000
_cell_volume 6085.784418
_symmetry_space_group_name_H-M "I M M A"
_symmetry_group_IT_number 74
_symmetry_cell_setting 'orthorhombic'
loop_
_space_group_symop_operation_xyz
x,y,z
-x,1/2-y,z
x,-y,-z
-x,1/2+y,-z
-x,-y,-z
x,1/2+y,-z
-x,y,z
x,1/2-y,z
1/2+x,1/2+y,1/2+z
1/2-x,-y,1/2+z
1/2+x,1/2-y,1/2-z
1/2-x,y,1/2-z
1/2-x,1/2-y,1/2-z
1/2+x,y,1/2-z
1/2-x,1/2+y,1/2+z
1/2+x,-y,1/2+z
loop_
_atom_site_type_symbol
_atom_site_label
_atom_site_fract_x
_atom_site_fract_y
_atom_site_fract_z
Si Si1 0.258687 0.438762 0.048652
Si Si2 0.642828 0.943569 0.448794
Si Si3 0.690318 0.559627 0.132999
Si Si4 0.941040 0.950735 0.122860
Si Si5 0.081102 0.555211 0.315565
Si Si6 0.500000 0.750000 0.833126
Si Si7 0.276483 0.550994 0.702017
Si Si8 0.103459 0.052804 0.216365
O O1 0.242483 0.250000 0.043072
O O2 0.204365 0.529138 0.061783
O O3 0.301265 0.456892 0.087662
O O4 0.277236 0.500000 0.000000
O O5 0.632460 0.750000 0.448407
O O6 0.603529 0.016551 0.411404
O O7 0.633917 0.000000 0.500000
O O8 0.688031 0.750000 0.118703
O O9 0.638629 0.525531 0.162444
O O10 0.741212 0.530402 0.163925
O O11 0.937387 0.750000 0.125976
O O12 0.000000 0.992389 0.107235
O O13 0.931507 0.019172 0.172799
O O14 0.066334 0.750000 0.325900
O O15 0.044991 0.401565 0.331330
O O16 0.084939 0.537761 0.261456
O O17 0.274803 0.750000 0.695018
O O18 0.250000 0.514770 0.750000
O O19 0.337135 0.499307 0.703812
O O20 0.104273 0.250000 0.226244
#
# Coordination Sequence:
#
# PCOD9537696 Si02
#       8
#    16  16  16  16  16   4  16  16
#     4  11  22  37  62  91 126 158 192 236 300 369
#     4  10  20  37  59  82 113 150 195 248 310 374
#     4  11  23  38  60  91 128 160 203 249 303 369
#     4  10  23  39  54  75 107 153 207 263 314 362
#     4  11  25  42  64  92 122 163 208 260 305 363
#     4  12  26  44  68  84 126 160 218 248 314 362
#     4  10  20  34  56  82 120 163 202 248 304 370
#     4  11  22  37  56  84 119 159 208 257 312 371
#
# _framework density 19.060811999999999
#
# number of rings (size 3 to 8) (size 9 to 14) (size 15 to 20)
#    0.000    1.379    2.069    4.345    2.897    5.241 
#    0.000    0.000    0.000    0.000    0.000    0.483 
#    0.000    0.000    0.000    0.000    0.000    0.000 
#
# Total GULP energy -323324.208726 kJ/mol
# GULP energy per Si atom -5574.555323 kJ/mol
# Density = 1.901743 g / cm^3
# Si number density = 19.060812 Si / 1000 Ang^3
#
#
#
# Elastic Constant Matrix: (Units=GPa)
#
#
# Indices 1 2 3 4 5 6 
#
# 1 17.6975 10.1827 17.6598 0.0000 0.0000 0.0000
# 2 10.1827 60.5517 8.4217 0.0000 0.0000 0.0000
# 3 17.6598 8.4217 67.2121 0.0000 0.0000 0.0000
# 4 0.0000 0.0000 0.0000 24.6530 0.0000 0.0000
# 5 0.0000 0.0000 0.0000 0.0000 33.6270 0.0000
# 6 0.0000 0.0000 0.0000 0.0000 0.0000 27.7069
#
#
#
# Elastic Compliance Matrix: (Units=1/GPa)
#
#
# Indices 1 2 3 4 5 6 
#
# 1 0.083404 -0.011172 -0.020514 0.000000 0.000000 0.000000
# 2 -0.011172 0.018304 0.000642 0.000000 0.000000 0.000000
# 3 -0.020514 0.000642 0.020188 0.000000 0.000000 0.000000
# 4 0.000000 0.000000 0.000000 0.040563 0.000000 0.000000
# 5 0.000000 0.000000 0.000000 0.000000 0.029738 0.000000
# 6 0.000000 0.000000 0.000000 0.000000 0.000000 0.036092
#
#
# Mechanical properties :
#
#
# Convention : Reuss Voigt Hill
#
# Bulk Modulus (GPa) = 16.72052 24.22108 20.47080
# Shear Modulus (GPa) = 16.11268 24.47717 20.29493
#
# Velocity S-wave (km/s) = 2.91061 3.58741 3.26658
# Velocity P-wave (km/s) = 4.48183 5.46756 4.99905
#
# Compressibility (1/GPa) = 0.05980676
#
# Stress axis : x y z
#
# Youngs Moduli (GPa) = 11.98983 54.63179 49.53461
#
# Poissons Ratio (x) = 0.61037 1.01617
# Poissons Ratio (y) = 0.13396 -0.03180
# Poissons Ratio (z) = 0.24596 -0.03507
#
# Static dielectric constant tensor:
#      x y z
#    x 1.676230 0.000000 0.000000 
#    y 0.000000 1.674390 0.000000 
#    z 0.000000 0.000000 1.651320 
# 
# From -- ./inp_files/73773.got.cif
#   From: 2010.05.17/outbox.cif.g08.bks.cpg/sg74_37_cif.got.tgz:73773.got - 2010.06.03 17:57:02.
