data_PCOD9537909
_publ_section_title
;
Structure prediction by ZEFSAII (Michael W. Deem and Ramdas Pophale) SiO2 
 PCOD9537909
Probable space group: I M M A
;
_chemical_formula_sum "Si O2"
_cell_formula_units_Z 104
_cell_length_a 21.896449
_cell_length_b 8.984168
_cell_length_c 27.625093
_cell_angle_alpha 90.000000
_cell_angle_beta 90.000000
_cell_angle_gamma 90.000000
_cell_volume 5434.446319
_symmetry_space_group_name_H-M "I M M A"
_symmetry_group_IT_number 74
_symmetry_cell_setting 'orthorhombic'
loop_
_space_group_symop_operation_xyz
x,y,z
-x,1/2-y,z
x,-y,-z
-x,1/2+y,-z
-x,-y,-z
x,1/2+y,-z
-x,y,z
x,1/2-y,z
1/2+x,1/2+y,1/2+z
1/2-x,-y,1/2+z
1/2+x,1/2-y,1/2-z
1/2-x,y,1/2-z
1/2-x,1/2-y,1/2-z
1/2+x,y,1/2-z
1/2-x,1/2+y,1/2+z
1/2+x,-y,1/2+z
loop_
_atom_site_type_symbol
_atom_site_label
_atom_site_fract_x
_atom_site_fract_y
_atom_site_fract_z
Si Si1 0.587905 0.073377 0.865837
Si Si2 0.194883 0.421368 0.210973
Si Si3 0.267793 0.577796 0.127495
Si Si4 0.194203 0.925410 0.948203
Si Si5 0.000000 0.568907 0.555049
Si Si6 0.567239 0.571384 0.762278
Si Si7 0.435624 0.070681 0.446281
O O1 0.574157 0.250000 0.869222
O O2 0.660948 0.056428 0.862753
O O3 0.556912 0.990534 0.911738
O O4 0.566655 0.005960 0.814698
O O5 0.187360 0.250000 0.193246
O O6 0.250000 0.418812 0.250000
O O7 0.222717 0.524763 0.169714
O O8 0.129378 0.469783 0.233244
O O9 0.257049 0.750000 0.116924
O O10 0.250494 0.479957 0.081953
O O11 0.195015 0.750000 0.953478
O O12 0.129249 0.969902 0.923459
O O13 0.195106 0.000000 0.000000
O O14 0.000000 0.500000 0.500000
O O15 0.000000 0.750000 0.552475
O O16 0.500000 0.541493 0.739276
O O17 0.571686 0.750000 0.769298
O O18 0.500000 0.026391 0.422510
O O19 0.435983 0.250000 0.450929
O O20 0.435654 0.000000 0.500000
#
# Coordination Sequence:
#
# PCOD9537909 Si02
#       7
#    16  16  16  16   8  16  16
#     4  11  23  39  61  89 119 155 201 249 301 363
#     4  10  20  36  60  89 119 153 200 253 306 368
#     4  11  24  39  58  86 121 159 202 249 301 360
#     4  10  20  35  56  80 111 151 194 242 296 353
#     4  12  26  44  66  92 126 164 206 258 313 370
#     4  10  20  36  61  92 123 158 200 249 307 371
#     4   8  14  26  46  72  98 128 171 221 272 326
#
# _framework density 19.137184000000001
#
# number of rings (size 3 to 8) (size 9 to 14) (size 15 to 20)
#    0.000    1.846    2.308    2.077    0.000    4.000 
#    0.000    0.769    0.000    4.615    0.000    0.000 
#    0.000    0.000    0.000    0.000    0.000    0.000 
#
# Total GULP energy -289685.086022 kJ/mol
# GULP energy per Si atom -5570.867039 kJ/mol
# Density = 1.909363 g / cm^3
# Si number density = 19.137184 Si / 1000 Ang^3
#
#
#
# Elastic Constant Matrix: (Units=GPa)
#
#
# Indices 1 2 3 4 5 6 
#
# 1 132.8597 47.6048 37.9587 0.0000 0.0000 0.0000
# 2 47.6048 67.8639 34.0321 0.0000 0.0000 0.0000
# 3 37.9587 34.0321 52.0161 0.0000 0.0000 0.0000
# 4 0.0000 0.0000 0.0000 29.7931 0.0000 0.0000
# 5 0.0000 0.0000 0.0000 0.0000 33.1267 0.0000
# 6 0.0000 0.0000 0.0000 0.0000 0.0000 42.9994
#
#
#
# Elastic Compliance Matrix: (Units=1/GPa)
#
#
# Indices 1 2 3 4 5 6 
#
# 1 0.010662 -0.005324 -0.004297 0.000000 0.000000 0.000000
# 2 -0.005324 0.024590 -0.012203 0.000000 0.000000 0.000000
# 3 -0.004297 -0.012203 0.030344 0.000000 0.000000 0.000000
# 4 0.000000 0.000000 0.000000 0.033565 0.000000 0.000000
# 5 0.000000 0.000000 0.000000 0.000000 0.030187 0.000000
# 6 0.000000 0.000000 0.000000 0.000000 0.000000 0.023256
#
#
# Mechanical properties :
#
#
# Convention : Reuss Voigt Hill
#
# Bulk Modulus (GPa) = 45.56249 54.65900 50.11074
# Shear Modulus (GPa) = 24.56177 30.06012 27.31094
#
# Velocity S-wave (km/s) = 3.58642 3.96759 3.78181
# Velocity P-wave (km/s) = 6.40390 7.04363 6.73137
#
# Compressibility (1/GPa) = 0.02194788
#
# Stress axis : x y z
#
# Youngs Moduli (GPa) = 93.78901 40.66772 32.95504
#
# Poissons Ratio (x) = 0.21653 0.14162
# Poissons Ratio (y) = 0.49936 0.40214
# Poissons Ratio (z) = 0.40303 0.49625
#
# Static dielectric constant tensor:
#      x y z
#    x 2.058060 0.000000 0.000000 
#    y 0.000000 1.708640 0.000000 
#    z 0.000000 0.000000 1.646600 
# 
# From -- ./inp_files/68215.got.cif
#   From: 2010.05.17/outbox.cif.g08.bks.cpg/sg74_35_cif.got.tgz:68215.got - 2010.06.03 17:57:02.
