data_PCOD9537295
_publ_section_title
;
Structure prediction by ZEFSAII (Michael W. Deem and Ramdas Pophale) SiO2 
 PCOD9537295
Probable space group: I M M A
;
_chemical_formula_sum "Si O2"
_cell_formula_units_Z 96
_cell_length_a 13.816378
_cell_length_b 15.021683
_cell_length_c 27.780769
_cell_angle_alpha 90.000000
_cell_angle_beta 90.000000
_cell_angle_gamma 90.000000
_cell_volume 5765.766662
_symmetry_space_group_name_H-M "I M M A"
_symmetry_group_IT_number 74
_symmetry_cell_setting 'orthorhombic'
loop_
_space_group_symop_operation_xyz
x,y,z
-x,1/2-y,z
x,-y,-z
-x,1/2+y,-z
-x,-y,-z
x,1/2+y,-z
-x,y,z
x,1/2-y,z
1/2+x,1/2+y,1/2+z
1/2-x,-y,1/2+z
1/2+x,1/2-y,1/2-z
1/2-x,y,1/2-z
1/2-x,1/2-y,1/2-z
1/2+x,y,1/2-z
1/2-x,1/2+y,1/2+z
1/2+x,-y,1/2+z
loop_
_atom_site_type_symbol
_atom_site_label
_atom_site_fract_x
_atom_site_fract_y
_atom_site_fract_z
Si Si1 0.889585 0.142267 0.115649
Si Si2 0.884928 0.063772 0.380974
Si Si3 0.709755 0.938122 0.045123
Si Si4 0.391124 0.750000 0.921888
Si Si5 0.608625 0.250000 0.963476
Si Si6 0.727978 0.856874 0.805650
Si Si7 0.114543 0.643406 0.994795
O O1 0.891618 0.250000 0.114370
O O2 0.817781 0.119215 0.159045
O O3 0.862625 0.116777 0.060684
O O4 0.000000 0.111734 0.124321
O O5 0.849667 0.157148 0.404882
O O6 0.860026 0.083661 0.325666
O O7 0.000000 0.050388 0.389590
O O8 0.821250 0.989397 0.406877
O O9 0.659113 0.842278 0.048722
O O10 0.819620 0.912293 0.031182
O O11 0.674128 0.000000 0.000000
O O12 0.500000 0.750000 0.901612
O O13 0.394178 0.750000 0.978665
O O14 0.500000 0.250000 0.944223
O O15 0.708351 0.750000 0.810491
O O16 0.750000 0.873058 0.750000
O O17 0.134950 0.750000 0.999323
O O18 0.000000 0.630803 0.002098
#
# Coordination Sequence:
#
# PCOD9537295 Si02
#       7
#    16  16  16   8   8  16  16
#     4   8  15  28  47  69  95 128 169 213 257 308
#     4  11  22  35  51  76 108 146 184 219 265 322
#     4  12  22  32  52  77 107 148 185 224 266 316
#     4   9  18  32  49  68 102 147 186 219 255 305
#     4  11  22  34  47  72 109 149 192 227 256 307
#     4  10  20  33  52  76 101 135 178 222 272 325
#     4   9  18  34  54  76 105 142 181 219 263 315
#
# _framework density 16.649998
#
# number of rings (size 3 to 8) (size 9 to 14) (size 15 to 20)
#    0.000    2.000    3.333    2.500    0.000    1.667 
#    0.000    2.500    0.000    0.000    0.000    0.583 
#    0.000    0.000    0.000    0.000    0.000    0.000 
#
# Total GULP energy -267561.022338 kJ/mol
# GULP energy per Si atom -5574.187965 kJ/mol
# Density = 1.661210 g / cm^3
# Si number density = 16.649998 Si / 1000 Ang^3
#
#
#
# Elastic Constant Matrix: (Units=GPa)
#
#
# Indices 1 2 3 4 5 6 
#
# 1 102.8379 38.2272 47.8167 0.0000 0.0000 0.0000
# 2 38.2272 96.5524 38.4876 0.0000 0.0000 0.0000
# 3 47.8167 38.4876 88.2629 0.0000 0.0000 0.0000
# 4 0.0000 0.0000 0.0000 20.9747 0.0000 0.0000
# 5 0.0000 0.0000 0.0000 0.0000 19.9145 0.0000
# 6 0.0000 0.0000 0.0000 0.0000 0.0000 22.5820
#
#
#
# Elastic Compliance Matrix: (Units=1/GPa)
#
#
# Indices 1 2 3 4 5 6 
#
# 1 0.013671 -0.002978 -0.006108 0.000000 0.000000 0.000000
# 2 -0.002978 0.013185 -0.004136 0.000000 0.000000 0.000000
# 3 -0.006108 -0.004136 0.016442 0.000000 0.000000 0.000000
# 4 0.000000 0.000000 0.000000 0.047677 0.000000 0.000000
# 5 0.000000 0.000000 0.000000 0.000000 0.050215 0.000000
# 6 0.000000 0.000000 0.000000 0.000000 0.000000 0.044283
#
#
# Mechanical properties :
#
#
# Convention : Reuss Voigt Hill
#
# Bulk Modulus (GPa) = 59.33108 59.63514 59.48311
# Shear Modulus (GPa) = 22.98494 23.56902 23.27698
#
# Velocity S-wave (km/s) = 3.71951 3.76647 3.74306
# Velocity P-wave (km/s) = 7.35921 7.40336 7.38132
#
# Compressibility (1/GPa) = 0.01685457
#
# Stress axis : x y z
#
# Youngs Moduli (GPa) = 73.14790 75.84496 60.81915
#
# Poissons Ratio (x) = 0.22586 0.37147
# Poissons Ratio (y) = 0.21783 0.25155
# Poissons Ratio (z) = 0.44677 0.31369
#
# Static dielectric constant tensor:
#      x y z
#    x 1.646560 0.000000 0.000000 
#    y 0.000000 1.606310 0.000000 
#    z 0.000000 0.000000 1.560600 
# 
# From -- ./inp_files/67122.got.cif
#   From: 2010.05.17/outbox.cif.g08.bks.cpg/sg74_34_cif.got.tgz:67122.got - 2010.06.03 17:57:02.
