data_PCOD9538271
_publ_section_title
;
Structure prediction by ZEFSAII (Michael W. Deem and Ramdas Pophale) SiO2 
 PCOD9538271
Probable space group: I M M A
;
_chemical_formula_sum "Si O2"
_cell_formula_units_Z 64
_cell_length_a 15.152472
_cell_length_b 7.585023
_cell_length_c 27.172291
_cell_angle_alpha 90.000000
_cell_angle_beta 90.000000
_cell_angle_gamma 90.000000
_cell_volume 3122.961636
_symmetry_space_group_name_H-M "I M M A"
_symmetry_group_IT_number 74
_symmetry_cell_setting 'orthorhombic'
loop_
_space_group_symop_operation_xyz
x,y,z
-x,1/2-y,z
x,-y,-z
-x,1/2+y,-z
-x,-y,-z
x,1/2+y,-z
-x,y,z
x,1/2-y,z
1/2+x,1/2+y,1/2+z
1/2-x,-y,1/2+z
1/2+x,1/2-y,1/2-z
1/2-x,y,1/2-z
1/2-x,1/2-y,1/2-z
1/2+x,y,1/2-z
1/2-x,1/2+y,1/2+z
1/2+x,-y,1/2+z
loop_
_atom_site_type_symbol
_atom_site_label
_atom_site_fract_x
_atom_site_fract_y
_atom_site_fract_z
Si Si1 0.100906 0.250000 0.815364
Si Si2 0.105649 0.750000 0.068380
Si Si3 0.853373 0.442857 0.254910
Si Si4 0.899607 0.535625 0.634406
Si Si5 0.747120 0.539187 0.946431
O O1 0.112734 0.250000 0.872904
O O2 0.131734 0.424925 0.789111
O O3 0.000000 0.250000 0.803985
O O4 0.163293 0.577918 0.053453
O O5 0.000000 0.750000 0.054885
O O6 0.896184 0.250000 0.249222
O O7 0.750000 0.419040 0.250000
O O8 0.878980 0.514949 0.308940
O O9 0.898707 0.750000 0.633830
O O10 0.821831 0.483277 0.596541
O O11 0.000000 0.479420 0.621632
O O12 0.764273 0.750000 0.941496
O O13 0.705574 0.500000 0.000000
#
# Coordination Sequence:
#
# PCOD9538271 Si02
#       5
#     8   8  16  16  16
#     4  11  23  37  57  88 125 159 199 252 303 364
#     4  11  26  45  66  96 126 161 214 268 323 390
#     4  10  20  36  59  88 124 171 211 252 302 360
#     4   9  19  36  61  93 131 173 217 258 308 379
#     4  11  23  44  67  91 124 163 209 268 331 382
#
# _framework density 20.493368
#
# number of rings (size 3 to 8) (size 9 to 14) (size 15 to 20)
#    0.000    1.750    1.250    2.625    0.000    7.000 
#    0.000    4.375    0.000    0.000    0.000    0.000 
#    0.000    0.000    0.000    0.000    0.000    0.000 
#
# Total GULP energy -178339.674578 kJ/mol
# GULP energy per Si atom -5573.114831 kJ/mol
# Density = 2.044672 g / cm^3
# Si number density = 20.493368 Si / 1000 Ang^3
#
#
#
# Elastic Constant Matrix: (Units=GPa)
#
#
# Indices 1 2 3 4 5 6 
#
# 1 120.5584 26.2967 14.8755 0.0000 0.0000 0.0000
# 2 26.2967 96.8182 44.2483 0.0000 0.0000 0.0000
# 3 14.8755 44.2483 200.0540 0.0000 0.0000 0.0000
# 4 0.0000 0.0000 0.0000 28.8962 0.0000 0.0000
# 5 0.0000 0.0000 0.0000 0.0000 10.0723 0.0000
# 6 0.0000 0.0000 0.0000 0.0000 0.0000 114.4041
#
#
#
# Elastic Compliance Matrix: (Units=1/GPa)
#
#
# Indices 1 2 3 4 5 6 
#
# 1 0.008821 -0.002332 -0.000140 0.000000 0.000000 0.000000
# 2 -0.002332 0.012106 -0.002504 0.000000 0.000000 0.000000
# 3 -0.000140 -0.002504 0.005563 0.000000 0.000000 0.000000
# 4 0.000000 0.000000 0.000000 0.034607 0.000000 0.000000
# 5 0.000000 0.000000 0.000000 0.000000 0.099282 0.000000
# 6 0.000000 0.000000 0.000000 0.000000 0.000000 0.008741
#
#
# Mechanical properties :
#
#
# Convention : Reuss Voigt Hill
#
# Bulk Modulus (GPa) = 60.46794 65.36352 62.91573
# Shear Modulus (GPa) = 27.08784 52.80854 39.94819
#
# Velocity S-wave (km/s) = 3.63958 5.08179 4.41990
# Velocity P-wave (km/s) = 6.87257 8.14843 7.53754
#
# Compressibility (1/GPa) = 0.01653769
#
# Stress axis : x y z
#
# Youngs Moduli (GPa) = 113.37065 82.60029 179.75952
#
# Poissons Ratio (x) = 0.19260 0.02519
# Poissons Ratio (y) = 0.26435 0.45018
# Poissons Ratio (z) = 0.01589 0.20686
#
# Static dielectric constant tensor:
#      x y z
#    x 1.672450 0.000000 0.000000 
#    y 0.000000 1.666260 0.000000 
#    z 0.000000 0.000000 1.654870 
# 
# From -- ./inp_files/59517.got.cif
#   From: 2010.05.17/outbox.cif.g08.bks.cpg/sg74_30_cif.got.tgz:59517.got - 2010.06.03 17:57:02.
