data_PCOD9538622
_publ_section_title
;
Structure prediction by ZEFSAII (Michael W. Deem and Ramdas Pophale) SiO2 
 PCOD9538622
Probable space group: I M M A
;
_chemical_formula_sum "Si O2"
_cell_formula_units_Z 68
_cell_length_a 14.208531
_cell_length_b 15.044616
_cell_length_c 15.434559
_cell_angle_alpha 90.000000
_cell_angle_beta 90.000000
_cell_angle_gamma 90.000000
_cell_volume 3299.320547
_symmetry_space_group_name_H-M "I M M A"
_symmetry_group_IT_number 74
_symmetry_cell_setting 'orthorhombic'
loop_
_space_group_symop_operation_xyz
x,y,z
-x,1/2-y,z
x,-y,-z
-x,1/2+y,-z
-x,-y,-z
x,1/2+y,-z
-x,y,z
x,1/2-y,z
1/2+x,1/2+y,1/2+z
1/2-x,-y,1/2+z
1/2+x,1/2-y,1/2-z
1/2-x,y,1/2-z
1/2-x,1/2-y,1/2-z
1/2+x,y,1/2-z
1/2-x,1/2+y,1/2+z
1/2+x,-y,1/2+z
loop_
_atom_site_type_symbol
_atom_site_label
_atom_site_fract_x
_atom_site_fract_y
_atom_site_fract_z
Si Si1 0.292869 0.108679 0.996764
Si Si2 0.178703 0.590217 0.170657
Si Si3 0.500000 0.750000 0.677767
Si Si4 0.000000 0.596333 0.455066
Si Si5 0.500000 0.652216 0.233244
Si Si6 0.819698 0.118605 0.167853
O O1 0.228835 0.129231 0.913720
O O2 0.400649 0.138949 0.983377
O O3 0.241978 0.858186 0.917034
O O4 0.296600 0.000000 0.000000
O O5 0.250000 0.594001 0.250000
O O6 0.156319 0.486017 0.157437
O O7 0.087987 0.639521 0.204812
O O8 0.415269 0.673551 0.676711
O O9 0.000000 0.500000 0.500000
O O10 0.000000 0.587816 0.350296
O O11 0.500000 0.750000 0.193176
O O12 0.750000 0.129439 0.250000
#
# Coordination Sequence:
#
# PCOD9538622 Si02
#       6
#    16  16   4   8   8  16
#     4   9  19  39  65  96 124 161 223 274 319 400
#     4  10  20  41  67  92 127 173 215 265 333 407
#     4  12  24  44  60  94 134 168 222 280 326 390
#     4  10  20  38  68  94 128 165 220 265 320 390
#     4  12  25  40  62 103 135 172 217 273 344 394
#     4  10  23  41  68  92 126 173 223 273 334 391
#
# _framework density 20.610305
#
# number of rings (size 3 to 8) (size 9 to 14) (size 15 to 20)
#    0.000    1.882    2.353    1.059    3.294    2.353 
#    6.353    3.529    0.000    0.000    0.000    0.000 
#    0.000    0.000    0.000    0.000    0.000    0.000 
#
# Total GULP energy -189326.336116 kJ/mol
# GULP energy per Si atom -5568.421650 kJ/mol
# Density = 2.056339 g / cm^3
# Si number density = 20.610305 Si / 1000 Ang^3
#
#
#
# Elastic Constant Matrix: (Units=GPa)
#
#
# Indices 1 2 3 4 5 6 
#
# 1 172.1975 54.6731 47.1539 0.0000 0.0000 0.0001
# 2 54.6731 66.7185 33.1886 0.0000 0.0000 0.0017
# 3 47.1539 33.1886 139.0664 0.0000 0.0000 0.0016
# 4 0.0000 0.0000 0.0000 -3.0728 0.0000 0.0014
# 5 0.0000 0.0000 0.0000 0.0000 21.7412 0.0005
# 6 0.0001 0.0017 0.0016 0.0014 0.000511877.5976
#
#
#
# Elastic Compliance Matrix: (Units=1/GPa)
#
#
# Indices 1 2 3 4 5 6 
#
# 1 0.008055 -0.005948 -0.001312 0.000000 0.000000 0.000000
# 2 -0.005948 0.021400 -0.003090 0.000000 0.000000 0.000000
# 3 -0.001312 -0.003090 0.008373 0.000000 0.000000 0.000000
# 4 0.000000 0.000000 0.000000 -0.325433 0.000000 0.000000
# 5 0.000000 0.000000 0.000000 0.000000 0.045996 0.000000
# 6 0.000000 0.000000 0.000000 0.000000 0.000000 0.000084
#
#
# Mechanical properties :
#
#
# Convention : Reuss Voigt Hill
#
# Bulk Modulus (GPa) = 58.38525 72.00151 65.19338
# Shear Modulus (GPa) = -23.24338 2395.45097 1186.10380
#
# Velocity S-wave (km/s) = -3.36185 34.12890 24.01541
# Velocity P-wave (km/s) = 3.64970 39.85039 28.29641
#
# Compressibility (1/GPa) = 0.01712761
#
# Stress axis : x y z
#
# Youngs Moduli (GPa) = 124.14528 46.72906 119.43056
#
# Poissons Ratio (x) = 0.27796 0.15666
# Poissons Ratio (y) = 0.73846 0.36907
# Poissons Ratio (z) = 0.16284 0.14440
#
# Static dielectric constant tensor:
#      x y z
#    x 1.678050 0.000000 0.000000 
#    y 0.000000 1.770610 0.000000 
#    z 0.000000 0.000000 1.716600 
# 
# From -- ./inp_files/40999.got.cif
#   From: 2010.05.17/outbox.cif.g08.bks.cpg/sg74_21_cif.got.tgz:40999.got - 2010.06.03 17:57:02.
