data_PCOD9538504
_publ_section_title
;
Structure prediction by ZEFSAII (Michael W. Deem and Ramdas Pophale) SiO2 
 PCOD9538504
Probable space group: I M M A
;
_chemical_formula_sum "Si O2"
_cell_formula_units_Z 56
_cell_length_a 15.078063
_cell_length_b 10.555967
_cell_length_c 16.279323
_cell_angle_alpha 90.000000
_cell_angle_beta 90.000000
_cell_angle_gamma 90.000000
_cell_volume 2591.074603
_symmetry_space_group_name_H-M "I M M A"
_symmetry_group_IT_number 74
_symmetry_cell_setting 'orthorhombic'
loop_
_space_group_symop_operation_xyz
x,y,z
-x,1/2-y,z
x,-y,-z
-x,1/2+y,-z
-x,-y,-z
x,1/2+y,-z
-x,y,z
x,1/2-y,z
1/2+x,1/2+y,1/2+z
1/2-x,-y,1/2+z
1/2+x,1/2-y,1/2-z
1/2-x,y,1/2-z
1/2-x,1/2-y,1/2-z
1/2+x,y,1/2-z
1/2-x,1/2+y,1/2+z
1/2+x,-y,1/2+z
loop_
_atom_site_type_symbol
_atom_site_label
_atom_site_fract_x
_atom_site_fract_y
_atom_site_fract_z
Si Si1 0.105552 0.750000 0.154166
Si Si2 0.607243 0.250000 0.309676
Si Si3 0.798757 0.750000 0.985207
Si Si4 0.892066 0.519393 0.268907
Si Si5 0.140179 0.391910 0.551966
O O1 0.135993 0.876100 0.201780
O O2 0.000000 0.750000 0.159201
O O3 0.132728 0.750000 0.059900
O O4 0.500000 0.250000 0.322605
O O5 0.656320 0.250000 0.397144
O O6 0.629973 0.377761 0.260093
O O7 0.731966 0.865557 0.003506
O O8 0.851299 0.559046 0.355671
O O9 0.000000 0.525647 0.277815
O O10 0.093055 0.500000 0.500000
O O11 0.100068 0.250000 0.555686
#
# Coordination Sequence:
#
# PCOD9538504 Si02
#       5
#     8   8   8  16  16
#     4  10  20  37  66  89 119 166 207 261 308 371
#     4  10  23  40  67  95 128 168 208 268 317 373
#     4  10  24  41  60  94 135 158 215 250 321 388
#     4  10  22  42  64  93 122 162 218 261 316 374
#     4  10  24  41  60  92 126 169 209 256 323 372
#
# _framework density 21.612653999999999
#
# number of rings (size 3 to 8) (size 9 to 14) (size 15 to 20)
#    0.857    1.143    1.429    0.429    6.000    2.857 
#    0.000    5.714    0.000    0.000    0.000    0.000 
#    0.000    0.000    0.000    0.000    0.000    0.000 
#
# Total GULP energy -156275.614460 kJ/mol
# GULP energy per Si atom -5581.271945 kJ/mol
# Density = 2.156346 g / cm^3
# Si number density = 21.612654 Si / 1000 Ang^3
#
#
#
# Elastic Constant Matrix: (Units=GPa)
#
#
# Indices 1 2 3 4 5 6 
#
# 1 58.0194 42.1369 36.4062 0.0000 0.0000 0.0000
# 2 42.1369 228.7192 89.8728 0.0000 0.0000 0.0000
# 3 36.4062 89.8728 118.2221 0.0000 0.0000 0.0000
# 4 0.0000 0.0000 0.0000 181.5226 0.0000 0.0000
# 5 0.0000 0.0000 0.0000 0.0000 26.2330 0.0000
# 6 0.0000 0.0000 0.0000 0.0000 0.0000 49.1181
#
#
#
# Elastic Compliance Matrix: (Units=1/GPa)
#
#
# Indices 1 2 3 4 5 6 
#
# 1 0.021976 -0.001981 -0.005261 0.000000 0.000000 0.000000
# 2 -0.001981 0.006413 -0.004265 0.000000 0.000000 0.000000
# 3 -0.005261 -0.004265 0.013321 0.000000 0.000000 0.000000
# 4 0.000000 0.000000 0.000000 0.005509 0.000000 0.000000
# 5 0.000000 0.000000 0.000000 0.000000 0.038120 0.000000
# 6 0.000000 0.000000 0.000000 0.000000 0.000000 0.020359
#
#
# Mechanical properties :
#
#
# Convention : Reuss Voigt Hill
#
# Bulk Modulus (GPa) = 53.49056 82.42137 67.95596
# Shear Modulus (GPa) = 37.05208 67.14438 52.09823
#
# Velocity S-wave (km/s) = 4.14499 5.57984 4.91505
# Velocity P-wave (km/s) = 6.90733 8.92924 7.98256
#
# Compressibility (1/GPa) = 0.01869489
#
# Stress axis : x y z
#
# Youngs Moduli (GPa) = 45.50450 155.93011 75.06815
#
# Poissons Ratio (x) = 0.30894 0.39495
# Poissons Ratio (y) = 0.09016 0.32018
# Poissons Ratio (z) = 0.23941 0.66507
#
# Static dielectric constant tensor:
#      x y z
#    x 1.852490 0.000000 0.000000 
#    y 0.000000 1.931570 0.000000 
#    z 0.000000 0.000000 1.712200 
# 
# From -- ./inp_files/34838.got.cif
#   From: 2010.05.17/outbox.cif.g08.bks.cpg/sg74_18_cif.got.tgz:34838.got - 2010.06.03 17:57:02.
