data_PCOD9538774
_publ_section_title
;
Structure prediction by ZEFSAII (Michael W. Deem and Ramdas Pophale) SiO2 
 PCOD9538774
Probable space group: I M M A
;
_chemical_formula_sum "Si O2"
_cell_formula_units_Z 104
_cell_length_a 28.880625
_cell_length_b 8.218395
_cell_length_c 23.541516
_cell_angle_alpha 90.000000
_cell_angle_beta 90.000000
_cell_angle_gamma 90.000000
_cell_volume 5587.634948
_symmetry_space_group_name_H-M "I M M A"
_symmetry_group_IT_number 74
_symmetry_cell_setting 'orthorhombic'
loop_
_space_group_symop_operation_xyz
x,y,z
-x,1/2-y,z
x,-y,-z
-x,1/2+y,-z
-x,-y,-z
x,1/2+y,-z
-x,y,z
x,1/2-y,z
1/2+x,1/2+y,1/2+z
1/2-x,-y,1/2+z
1/2+x,1/2-y,1/2-z
1/2-x,y,1/2-z
1/2-x,1/2-y,1/2-z
1/2+x,y,1/2-z
1/2-x,1/2+y,1/2+z
1/2+x,-y,1/2+z
loop_
_atom_site_type_symbol
_atom_site_label
_atom_site_fract_x
_atom_site_fract_y
_atom_site_fract_z
Si Si1 0.552606 0.444268 0.935432
Si Si2 0.644037 0.556620 0.874168
Si Si3 0.268209 0.444854 0.937396
Si Si4 0.000000 0.946289 0.065817
Si Si5 0.301932 0.943958 0.762454
Si Si6 0.183853 0.947454 0.140947
Si Si7 0.900898 0.553713 0.064930
O O1 0.500000 0.503802 0.921823
O O2 0.551394 0.250000 0.935580
O O3 0.593480 0.495740 0.892759
O O4 0.563289 0.500000 0.000000
O O5 0.640699 0.750000 0.868966
O O6 0.681336 0.513001 0.922680
O O7 0.668336 0.491868 0.815863
O O8 0.269694 0.250000 0.936401
O O9 0.232086 0.499600 0.888598
O O10 0.253012 0.500000 0.000000
O O11 0.049358 0.003035 0.089136
O O12 0.000000 0.750000 0.067899
O O13 0.000000 0.000000 0.000000
O O14 0.297054 0.750000 0.771412
O O15 0.250000 0.011840 0.750000
O O16 0.325418 0.980434 0.702566
O O17 0.184493 0.750000 0.144536
O O18 0.142883 0.002378 0.099887
O O19 0.900545 0.750000 0.065972
O O20 0.897323 0.500000 0.000000
#
# Coordination Sequence:
#
# PCOD9538774 Si02
#       7
#    16  16  16   8  16  16  16
#     4  10  21  38  61  89 119 148 181 224 276 333
#     4  11  22  37  58  81 108 144 183 225 270 322
#     4  11  22  34  50  76 109 142 175 216 267 322
#     4   8  14  26  46  68  96 128 162 202 245 298
#     4  10  21  38  57  77 102 138 182 222 264 313
#     4  10  21  34  51  75 103 137 177 220 266 315
#     4   9  17  30  48  74 102 133 169 209 259 310
#
# _framework density 18.612525000000002
#
# number of rings (size 3 to 8) (size 9 to 14) (size 15 to 20)
#    0.000    2.000    1.538    2.308    0.000    3.692 
#    0.000    0.000    1.692    0.000    0.000    0.000 
#    0.000    0.000    0.000    0.000    0.000    0.000 
#
# Total GULP energy -289921.222136 kJ/mol
# GULP energy per Si atom -5575.408118 kJ/mol
# Density = 1.857016 g / cm^3
# Si number density = 18.612525 Si / 1000 Ang^3
#
#
#
# Elastic Constant Matrix: (Units=GPa)
#
#
# Indices 1 2 3 4 5 6 
#
# 1 143.1912 19.6150 52.0413 0.0000 0.0000 0.0000
# 2 19.6150 19.1392 7.6625 0.0000 0.0000 0.0000
# 3 52.0413 7.6625 98.2837 0.0000 0.0000 0.0000
# 4 0.0000 0.0000 0.0000 24.0289 0.0000 0.0000
# 5 0.0000 0.0000 0.0000 0.0000 15.6211 0.0000
# 6 0.0000 0.0000 0.0000 0.0000 0.0000 17.1993
#
#
#
# Elastic Compliance Matrix: (Units=1/GPa)
#
#
# Indices 1 2 3 4 5 6 
#
# 1 0.009748 -0.008179 -0.004524 0.000000 0.000000 0.000000
# 2 -0.008179 0.060795 -0.000409 0.000000 0.000000 0.000000
# 3 -0.004524 -0.000409 0.012602 0.000000 0.000000 0.000000
# 4 0.000000 0.000000 0.000000 0.041617 0.000000 0.000000
# 5 0.000000 0.000000 0.000000 0.000000 0.064016 0.000000
# 6 0.000000 0.000000 0.000000 0.000000 0.000000 0.058142
#
#
# Mechanical properties :
#
#
# Convention : Reuss Voigt Hill
#
# Bulk Modulus (GPa) = 17.56821 46.58351 32.07586
# Shear Modulus (GPa) = 17.11636 23.45622 20.28629
#
# Velocity S-wave (km/s) = 3.03581 3.55383 3.30499
# Velocity P-wave (km/s) = 4.66343 6.47472 5.64223
#
# Compressibility (1/GPa) = 0.05692099
#
# Stress axis : x y z
#
# Youngs Moduli (GPa) = 102.58141 16.44866 79.35253
#
# Poissons Ratio (x) = 0.13454 0.35900
# Poissons Ratio (y) = 0.83906 0.03244
# Poissons Ratio (z) = 0.46408 0.00672
#
# Static dielectric constant tensor:
#      x y z
#    x 1.696460 0.000000 0.000000 
#    y 0.000000 1.651440 0.000000 
#    z 0.000000 0.000000 1.626250 
# 
# From -- ./inp_files/55659.got.cif
#   From: 2010.05.17/outbox.cif.g08.bks.cpg/sg74_28_cif.got.tgz:55659.got - 2010.06.03 17:57:02.
