data_PCOD9538773
_publ_section_title
;
Structure prediction by ZEFSAII (Michael W. Deem and Ramdas Pophale) SiO2 
 PCOD9538773
Probable space group: I M M A
;
_chemical_formula_sum "Si O2"
_cell_formula_units_Z 68
_cell_length_a 21.280271
_cell_length_b 7.401234
_cell_length_c 19.139930
_cell_angle_alpha 90.000000
_cell_angle_beta 90.000000
_cell_angle_gamma 90.000000
_cell_volume 3014.544052
_symmetry_space_group_name_H-M "I M M A"
_symmetry_group_IT_number 74
_symmetry_cell_setting 'orthorhombic'
loop_
_space_group_symop_operation_xyz
x,y,z
-x,1/2-y,z
x,-y,-z
-x,1/2+y,-z
-x,-y,-z
x,1/2+y,-z
-x,y,z
x,1/2-y,z
1/2+x,1/2+y,1/2+z
1/2-x,-y,1/2+z
1/2+x,1/2-y,1/2-z
1/2-x,y,1/2-z
1/2-x,1/2-y,1/2-z
1/2+x,y,1/2-z
1/2-x,1/2+y,1/2+z
1/2+x,-y,1/2+z
loop_
_atom_site_type_symbol
_atom_site_label
_atom_site_fract_x
_atom_site_fract_y
_atom_site_fract_z
Si Si1 0.387968 0.470399 0.211317
Si Si2 0.312488 0.034756 0.081876
Si Si3 0.069566 0.035021 0.917374
Si Si4 0.500000 0.250000 0.759726
Si Si5 0.305889 0.456398 0.334403
O O1 0.397326 0.250000 0.217583
O O2 0.370416 0.517811 0.131435
O O3 0.445272 0.590629 0.237034
O O4 0.327410 0.523459 0.258701
O O5 0.309517 0.250000 0.086949
O O6 0.248474 0.960930 0.117465
O O7 0.317662 0.000000 0.000000
O O8 0.069637 0.250000 0.905177
O O9 0.000000 0.968095 0.896295
O O10 0.129025 0.958024 0.877793
O O11 0.075681 0.000000 0.000000
O O12 0.287107 0.250000 0.322177
#
# Coordination Sequence:
#
# PCOD9538773 Si02
#       5
#    16  16  16   4  16
#     4  10  24  45  69  98 138 174 225 281 340 401
#     4  10  22  42  68  96 133 174 221 280 342 400
#     4  10  21  34  50  78 121 166 216 266 319 391
#     4  12  26  44  72 102 132 180 228 280 340 410
#     4  10  21  38  63  93 128 172 214 267 336 397
#
# _framework density 22.557310000000001
#
# number of rings (size 3 to 8) (size 9 to 14) (size 15 to 20)
#    0.000    1.882    0.000    2.471    4.941    7.059 
#    0.000    1.765    0.000    0.000    0.000    0.000 
#    0.000    0.000    0.000    0.000    0.000    0.000 
#
# Total GULP energy -189397.486917 kJ/mol
# GULP energy per Si atom -5570.514321 kJ/mol
# Density = 2.250597 g / cm^3
# Si number density = 22.557310 Si / 1000 Ang^3
#
#
#
# Elastic Constant Matrix: (Units=GPa)
#
#
# Indices 1 2 3 4 5 6 
#
# 1 50.2679 17.9827 17.2579 0.0000 0.0000 0.0000
# 2 17.9827 105.0424 3.6776 0.0000 0.0000 0.0000
# 3 17.2579 3.6776 120.5910 0.0000 0.0000 0.0000
# 4 0.0000 0.0000 0.0000 22.7820 0.0000 0.0000
# 5 0.0000 0.0000 0.0000 0.0000 18.1148 0.0000
# 6 0.0000 0.0000 0.0000 0.0000 0.0000 621.2906
#
#
#
# Elastic Compliance Matrix: (Units=1/GPa)
#
#
# Indices 1 2 3 4 5 6 
#
# 1 0.022275 -0.003706 -0.003075 0.000000 0.000000 0.000000
# 2 -0.003706 0.010147 0.000221 0.000000 0.000000 0.000000
# 3 -0.003075 0.000221 0.008726 0.000000 0.000000 0.000000
# 4 0.000000 0.000000 0.000000 0.043894 0.000000 0.000000
# 5 0.000000 0.000000 0.000000 0.000000 0.055204 0.000000
# 6 0.000000 0.000000 0.000000 0.000000 0.000000 0.001610
#
#
# Mechanical properties :
#
#
# Convention : Reuss Voigt Hill
#
# Bulk Modulus (GPa) = 35.67852 39.30417 37.49134
# Shear Modulus (GPa) = 30.42913 148.23636 89.33275
#
# Velocity S-wave (km/s) = 3.67682 8.11530 6.29988
# Velocity P-wave (km/s) = 5.82035 10.26025 8.34114
#
# Compressibility (1/GPa) = 0.02802807
#
# Stress axis : x y z
#
# Youngs Moduli (GPa) = 44.89399 98.55500 114.60283
#
# Poissons Ratio (x) = 0.36521 0.35237
# Poissons Ratio (y) = 0.16636 -0.02531
# Poissons Ratio (z) = 0.13804 -0.02177
#
# Static dielectric constant tensor:
#      x y z
#    x 1.831370 0.000000 0.000000 
#    y 0.000000 1.879840 0.000000 
#    z 0.000000 0.000000 1.905450 
# 
# From -- ./inp_files/39194.got.cif
#   From: 2010.05.17/outbox.cif.g08.bks.cpg/sg74_20_cif.got.tgz:39194.got - 2010.06.03 17:57:02.
