data_PCOD9538885
_publ_section_title
;
Structure prediction by ZEFSAII (Michael W. Deem and Ramdas Pophale) SiO2 
 PCOD9538885
Probable space group: I M M A
;
_chemical_formula_sum "Si O2"
_cell_formula_units_Z 88
_cell_length_a 23.028545
_cell_length_b 15.360251
_cell_length_c 12.816152
_cell_angle_alpha 90.000000
_cell_angle_beta 90.000000
_cell_angle_gamma 90.000000
_cell_volume 4533.383515
_symmetry_space_group_name_H-M "I M M A"
_symmetry_group_IT_number 74
_symmetry_cell_setting 'orthorhombic'
loop_
_space_group_symop_operation_xyz
x,y,z
-x,1/2-y,z
x,-y,-z
-x,1/2+y,-z
-x,-y,-z
x,1/2+y,-z
-x,y,z
x,1/2-y,z
1/2+x,1/2+y,1/2+z
1/2-x,-y,1/2+z
1/2+x,1/2-y,1/2-z
1/2-x,y,1/2-z
1/2-x,1/2-y,1/2-z
1/2+x,y,1/2-z
1/2-x,1/2+y,1/2+z
1/2+x,-y,1/2+z
loop_
_atom_site_type_symbol
_atom_site_label
_atom_site_fract_x
_atom_site_fract_y
_atom_site_fract_z
Si Si1 0.370582 0.087788 0.458693
Si Si2 0.635750 0.648488 0.314413
Si Si3 0.836965 0.939311 0.598458
Si Si4 0.315629 0.750000 0.888787
Si Si5 0.319171 0.750000 0.658670
Si Si6 0.250000 0.459747 0.750000
Si Si7 0.567615 0.512596 0.739700
O O1 0.384887 0.137791 0.565447
O O2 0.337608 0.159989 0.393767
O O3 0.338842 0.000000 0.500000
O O4 0.417674 0.049108 0.377128
O O5 0.638356 0.750000 0.286434
O O6 0.698699 0.601551 0.297203
O O7 0.590088 0.587277 0.254602
O O8 0.827485 0.841386 0.558003
O O9 0.846698 0.000000 0.500000
O O10 0.782816 0.978077 0.666151
O O11 0.891488 0.939908 0.676847
O O12 0.344753 0.750000 0.774675
O O13 0.249040 0.750000 0.856141
O O14 0.500000 0.520930 0.760139
#
# Coordination Sequence:
#
# PCOD9538885 Si02
#       7
#    16  16  16   8   8   8  16
#     4  10  21  35  60  90 125 161 201 249 313 365
#     4  10  21  36  60  93 130 166 208 246 307 383
#     4  11  25  42  64  94 123 166 209 255 313 378
#     4  11  24  36  62  90 129 160 208 252 315 382
#     4  11  20  36  60  92 129 164 196 252 311 376
#     4  10  23  39  62  94 136 168 192 250 314 372
#     4  10  23  44  62  83 123 164 211 271 315 356
#
# _framework density 19.411550999999999
#
# number of rings (size 3 to 8) (size 9 to 14) (size 15 to 20)
#    0.000    1.636    2.727    1.364    7.636    4.000 
#    6.545    1.818    0.000    0.000    0.000    0.000 
#    0.000    0.000    0.000    0.000    0.000    0.000 
#
# Total GULP energy -245138.411897 kJ/mol
# GULP energy per Si atom -5571.327543 kJ/mol
# Density = 1.936737 g / cm^3
# Si number density = 19.411551 Si / 1000 Ang^3
#
#
#
# Elastic Constant Matrix: (Units=GPa)
#
#
# Indices 1 2 3 4 5 6 
#
# 1 101.5325 36.7441 16.9907 0.0000 0.0000 0.0000
# 2 36.7441 164.1931 13.2090 0.0000 0.0000 0.0000
# 3 16.9907 13.2090 39.5765 0.0000 0.0000 0.0000
# 4 0.0000 0.0000 0.0000 36.4749 0.0000 0.0000
# 5 0.0000 0.0000 0.0000 0.0000 9.2241 0.0000
# 6 0.0000 0.0000 0.0000 0.0000 0.0000 9.8277
#
#
#
# Elastic Compliance Matrix: (Units=1/GPa)
#
#
# Indices 1 2 3 4 5 6 
#
# 1 0.011338 -0.002205 -0.004132 0.000000 0.000000 0.000000
# 2 -0.002205 0.006687 -0.001285 0.000000 0.000000 0.000000
# 3 -0.004132 -0.001285 0.027470 0.000000 0.000000 0.000000
# 4 0.000000 0.000000 0.000000 0.027416 0.000000 0.000000
# 5 0.000000 0.000000 0.000000 0.000000 0.108411 0.000000
# 6 0.000000 0.000000 0.000000 0.000000 0.000000 0.101753
#
#
# Mechanical properties :
#
#
# Convention : Reuss Voigt Hill
#
# Bulk Modulus (GPa) = 33.05583 48.79885 40.92734
# Shear Modulus (GPa) = 16.21249 26.99591 21.60420
#
# Velocity S-wave (km/s) = 2.89311 3.73327 3.33972
# Velocity P-wave (km/s) = 5.31282 6.61640 6.00012
#
# Compressibility (1/GPa) = 0.03025185
#
# Stress axis : x y z
#
# Youngs Moduli (GPa) = 88.19536 149.53863 36.40289
#
# Poissons Ratio (x) = 0.32973 0.15041
# Poissons Ratio (y) = 0.19447 0.04679
# Poissons Ratio (z) = 0.36441 0.19220
#
# Static dielectric constant tensor:
#      x y z
#    x 1.670730 0.000000 0.000000 
#    y 0.000000 1.607610 0.000000 
#    z 0.000000 0.000000 1.732310 
# 
# From -- ./inp_files/25017.got.cif
#   From: 2010.05.17/outbox.cif.g08.bks.cpg/sg74_13_cif.got.tgz:25017.got - 2010.06.03 17:57:02.
