data_PCOD9538032
_publ_section_title
;
Structure prediction by ZEFSAII (Michael W. Deem and Ramdas Pophale) SiO2 
 PCOD9538032
Probable space group: I M M A
;
_chemical_formula_sum "Si O2"
_cell_formula_units_Z 80
_cell_length_a 10.293433
_cell_length_b 21.827280
_cell_length_c 17.677041
_cell_angle_alpha 90.000000
_cell_angle_beta 90.000000
_cell_angle_gamma 90.000000
_cell_volume 3971.635929
_symmetry_space_group_name_H-M "I M M A"
_symmetry_group_IT_number 74
_symmetry_cell_setting 'orthorhombic'
loop_
_space_group_symop_operation_xyz
x,y,z
-x,1/2-y,z
x,-y,-z
-x,1/2+y,-z
-x,-y,-z
x,1/2+y,-z
-x,y,z
x,1/2-y,z
1/2+x,1/2+y,1/2+z
1/2-x,-y,1/2+z
1/2+x,1/2-y,1/2-z
1/2-x,y,1/2-z
1/2-x,1/2-y,1/2-z
1/2+x,y,1/2-z
1/2-x,1/2+y,1/2+z
1/2+x,-y,1/2+z
loop_
_atom_site_type_symbol
_atom_site_label
_atom_site_fract_x
_atom_site_fract_y
_atom_site_fract_z
Si Si1 0.833873 0.322803 0.806490
Si Si2 0.000000 0.908375 0.115813
Si Si3 0.758477 0.323317 0.405876
Si Si4 0.500000 0.323213 0.815928
Si Si5 0.500000 0.888237 0.548269
Si Si6 0.250000 0.899118 0.750000
Si Si7 0.000000 0.175513 0.512087
Si Si8 0.000000 0.967585 0.800977
O O1 0.829666 0.250000 0.825674
O O2 0.866218 0.370008 0.873075
O O3 0.669521 0.333814 0.792157
O O4 0.000000 0.327927 0.781040
O O5 0.000000 0.960860 0.179539
O O6 0.000000 0.925981 0.028877
O O7 0.761487 0.250000 0.395102
O O8 0.624888 0.345080 0.443331
O O9 0.766252 0.356955 0.324431
O O10 0.874853 0.341371 0.462144
O O11 0.500000 0.250000 0.825591
O O12 0.500000 0.349239 0.901722
O O13 0.500000 0.933944 0.618472
O O14 0.373775 0.943081 0.741419
O O15 0.000000 0.250000 0.516574
#
# Coordination Sequence:
#
# PCOD9538032 Si02
#       8
#    16   8  16   8   8   8   8   8
#     4   9  19  33  52  80 109 141 182 233 290 341
#     4  11  22  36  59  79 112 157 202 236 285 351
#     4  10  20  35  58  88 118 151 192 236 308 369
#     4   8  15  29  44  68 109 140 166 213 267 323
#     4  10  23  38  55  87 120 155 190 248 291 350
#     4  10  21  40  60  84 115 152 194 258 294 350
#     4   9  18  30  50  79 111 149 183 220 275 353
#     4  10  23  41  62  81 115 153 206 245 298 333
#
# _framework density 20.142834000000001
#
# number of rings (size 3 to 8) (size 9 to 14) (size 15 to 20)
#    0.000    2.400    0.000    2.400    4.200    1.600 
#    0.000    3.000    0.000    0.000    0.000   11.200 
#    0.000    0.000    0.000    0.000    0.000    0.000 
#
# Total GULP energy -222712.558347 kJ/mol
# GULP energy per Si atom -5567.813959 kJ/mol
# Density = 2.009699 g / cm^3
# Si number density = 20.142834 Si / 1000 Ang^3
#
#
#
# Elastic Constant Matrix: (Units=GPa)
#
#
# Indices 1 2 3 4 5 6 
#
# 1 169.1657 28.6875 59.0063 0.0000 0.0000 0.0000
# 2 28.6875 73.1516 26.5201 0.0000 0.0000 0.0000
# 3 59.0063 26.5201 109.0215 0.0000 0.0000 0.0000
# 4 0.0000 0.0000 0.0000 9.4781 0.0000 0.0000
# 5 0.0000 0.0000 0.0000 0.0000 25.6974 0.0000
# 6 0.0000 0.0000 0.0000 0.0000 0.0000 -25.5698
#
#
#
# Elastic Compliance Matrix: (Units=1/GPa)
#
#
# Indices 1 2 3 4 5 6 
#
# 1 0.007454 -0.001602 -0.003645 0.000000 0.000000 0.000000
# 2 -0.001602 0.015337 -0.002864 0.000000 0.000000 0.000000
# 3 -0.003645 -0.002864 0.011842 0.000000 0.000000 0.000000
# 4 0.000000 0.000000 0.000000 0.105506 0.000000 0.000000
# 5 0.000000 0.000000 0.000000 0.000000 0.038914 0.000000
# 6 0.000000 0.000000 0.000000 0.000000 0.000000 -0.039109
#
#
# Mechanical properties :
#
#
# Convention : Reuss Voigt Hill
#
# Bulk Modulus (GPa) = 54.31289 64.41851 59.36570
# Shear Modulus (GPa) = 30.80647 17.72945 24.26796
#
# Velocity S-wave (km/s) = 3.91500 2.97001 3.47478
# Velocity P-wave (km/s) = 6.88903 6.61903 6.75538
#
# Compressibility (1/GPa) = 0.01841183
#
# Stress axis : x y z
#
# Youngs Moduli (GPa) = 134.14900 65.20319 84.44613
#
# Poissons Ratio (x) = 0.10445 0.30780
# Poissons Ratio (y) = 0.21490 0.24183
# Poissons Ratio (z) = 0.48896 0.18672
#
# Static dielectric constant tensor:
#      x y z
#    x 1.910860 0.000000 0.000000 
#    y 0.000000 1.669210 0.000000 
#    z 0.000000 0.000000 1.781720 
# 
# From -- ./inp_files/48687.got.cif
#   From: 2010.05.17/outbox.cif.g08.bks.cpg/sg74_25_cif.got.tgz:48687.got - 2010.06.03 17:57:02.
