data_PCOD9538170
_publ_section_title
;
Structure prediction by ZEFSAII (Michael W. Deem and Ramdas Pophale) SiO2 
 PCOD9538170
Probable space group: I M M A
;
_chemical_formula_sum "Si O2"
_cell_formula_units_Z 96
_cell_length_a 15.178777
_cell_length_b 24.314111
_cell_length_c 11.276227
_cell_angle_alpha 90.000000
_cell_angle_beta 90.000000
_cell_angle_gamma 90.000000
_cell_volume 4161.587071
_symmetry_space_group_name_H-M "I M M A"
_symmetry_group_IT_number 74
_symmetry_cell_setting 'orthorhombic'
loop_
_space_group_symop_operation_xyz
x,y,z
-x,1/2-y,z
x,-y,-z
-x,1/2+y,-z
-x,-y,-z
x,1/2+y,-z
-x,y,z
x,1/2-y,z
1/2+x,1/2+y,1/2+z
1/2-x,-y,1/2+z
1/2+x,1/2-y,1/2-z
1/2-x,y,1/2-z
1/2-x,1/2-y,1/2-z
1/2+x,y,1/2-z
1/2-x,1/2+y,1/2+z
1/2+x,-y,1/2+z
loop_
_atom_site_type_symbol
_atom_site_label
_atom_site_fract_x
_atom_site_fract_y
_atom_site_fract_z
Si Si1 0.393762 0.130780 0.065626
Si Si2 0.607665 0.687277 0.178014
Si Si3 0.393872 0.421431 0.700077
Si Si4 0.398309 0.085633 0.444228
Si Si5 0.891776 0.311744 0.189545
Si Si6 0.347220 0.470154 0.208251
O O1 0.500000 0.131361 0.061381
O O2 0.366766 0.166318 0.180616
O O3 0.368659 0.067972 0.096849
O O4 0.363113 0.160121 0.946324
O O5 0.500000 0.689482 0.176455
O O6 0.638202 0.750000 0.194263
O O7 0.631655 0.641541 0.275325
O O8 0.500000 0.425691 0.710927
O O9 0.361432 0.437148 0.567464
O O10 0.358673 0.464612 0.796515
O O11 0.500000 0.096384 0.475028
O O12 0.358303 0.143701 0.404497
O O13 0.400746 0.049466 0.325255
O O14 0.862496 0.250000 0.168237
O O15 0.000000 0.312343 0.186378
O O16 0.250000 0.457173 0.250000
#
# Coordination Sequence:
#
# PCOD9538170 Si02
#       6
#    16  16  16  16  16  16
#     4   9  17  32  54  80 111 144 179 224 277 326
#     4   9  18  33  56  86 114 141 177 222 273 330
#     4  10  20  36  57  82 111 145 182 224 275 330
#     4   9  18  34  56  79 109 144 178 224 278 327
#     4   8  13  23  46  79 106 132 172 220 268 315
#     4  11  22  36  53  81 107 143 184 234 276 326
#
# _framework density 23.068121999999999
#
# number of rings (size 3 to 8) (size 9 to 14) (size 15 to 20)
#    0.000    2.667    0.000    3.500    0.000    4.667 
#    6.000    5.833    0.000   13.000    0.000    0.000 
#    0.000    0.000    0.000    0.000    0.000    0.000 
#
# Total GULP energy -267817.831762 kJ/mol
# GULP energy per Si atom -5579.538162 kJ/mol
# Density = 2.301562 g / cm^3
# Si number density = 23.068122 Si / 1000 Ang^3
#
#
#
# Elastic Constant Matrix: (Units=GPa)
#
#
# Indices 1 2 3 4 5 6 
#
# 1 26.8366 -0.8377 -1.9837 0.0000 0.0000 0.0000
# 2 -0.8377 136.0673 24.6845 0.0000 0.0000 0.0000
# 3 -1.9837 24.6845 50.0807 0.0004 0.0000 0.0002
# 4 0.0000 0.0000 0.0004 24.8211 0.0000 0.0001
# 5 0.0000 0.0000 0.0000 0.0000 -5.7847 0.0000
# 6 0.0000 0.0000 0.0002 0.0001 0.0000 -14.0383
#
#
#
# Elastic Compliance Matrix: (Units=1/GPa)
#
#
# Indices 1 2 3 4 5 6 
#
# 1 0.037372 -0.000042 0.001501 0.000000 0.000000 0.000000
# 2 -0.000042 0.008071 -0.003980 0.000000 0.000000 0.000000
# 3 0.001501 -0.003980 0.021989 0.000000 0.000000 0.000000
# 4 0.000000 0.000000 0.000000 0.040288 0.000000 0.000000
# 5 0.000000 0.000000 0.000000 0.000000 -0.172869 0.000000
# 6 0.000000 0.000000 0.000000 0.000000 0.000000 -0.071234
#
#
# Mechanical properties :
#
#
# Convention : Reuss Voigt Hill
#
# Bulk Modulus (GPa) = 16.02814 28.52341 22.27578
# Shear Modulus (GPa) = -45.23100 13.74105 -15.74498
#
# Velocity S-wave (km/s) = -4.43285 2.44329 -2.61539
# Velocity P-wave (km/s) = 4.38599 4.51124 0.74643
#
# Compressibility (1/GPa) = 0.06239026
#
# Stress axis : x y z
#
# Youngs Moduli (GPa) = 26.75785 123.89963 45.47750
#
# Poissons Ratio (x) = 0.00523 -0.06827
# Poissons Ratio (y) = 0.00113 0.18099
# Poissons Ratio (z) = -0.04017 0.49310
#
# Static dielectric constant tensor:
#      x y z
#    x 1.762530 0.000000 0.000000 
#    y 0.000000 1.872930 0.000000 
#    z 0.000000 0.000000 1.886400 
# 
# From -- ./inp_files/22430.got.cif
#   From: 2010.05.17/outbox.cif.g08.bks.cpg/sg74_12_cif.got.tgz:22430.got - 2010.06.03 17:57:02.
