data_PCOD9538855
_publ_section_title
;
Structure prediction by ZEFSAII (Michael W. Deem and Ramdas Pophale) SiO2 
 PCOD9538855
Probable space group: I M M A
;
_chemical_formula_sum "Si O2"
_cell_formula_units_Z 112
_cell_length_a 16.091206
_cell_length_b 14.109309
_cell_length_c 23.903685
_cell_angle_alpha 90.000000
_cell_angle_beta 90.000000
_cell_angle_gamma 90.000000
_cell_volume 5426.992190
_symmetry_space_group_name_H-M "I M M A"
_symmetry_group_IT_number 74
_symmetry_cell_setting 'orthorhombic'
loop_
_space_group_symop_operation_xyz
x,y,z
-x,1/2-y,z
x,-y,-z
-x,1/2+y,-z
-x,-y,-z
x,1/2+y,-z
-x,y,z
x,1/2-y,z
1/2+x,1/2+y,1/2+z
1/2-x,-y,1/2+z
1/2+x,1/2-y,1/2-z
1/2-x,y,1/2-z
1/2-x,1/2-y,1/2-z
1/2+x,y,1/2-z
1/2-x,1/2+y,1/2+z
1/2+x,-y,1/2+z
loop_
_atom_site_type_symbol
_atom_site_label
_atom_site_fract_x
_atom_site_fract_y
_atom_site_fract_z
Si Si1 0.746457 0.862149 0.880805
Si Si2 0.901411 0.637945 0.396899
Si Si3 0.593390 0.640412 0.339151
Si Si4 0.090863 0.902537 0.034187
Si Si5 0.092261 0.954222 0.675818
Si Si6 0.331181 0.972666 0.712829
Si Si7 0.225062 0.356809 0.504562
O O1 0.763745 0.750000 0.883287
O O2 0.660180 0.884530 0.849935
O O3 0.733675 0.903133 0.943332
O O4 0.817264 0.912467 0.843392
O O5 0.885196 0.750000 0.382859
O O6 0.888562 0.561284 0.347074
O O7 0.839047 0.609709 0.447683
O O8 0.000000 0.632157 0.412330
O O9 0.500000 0.636444 0.314626
O O10 0.614711 0.750000 0.347611
O O11 0.589175 0.589440 0.399051
O O12 0.657247 0.581728 0.303111
O O13 0.000000 0.858306 0.019497
O O14 0.179180 0.853847 0.023814
O O15 0.093814 0.000000 0.000000
O O16 0.000000 0.930856 0.656248
O O17 0.097370 0.948144 0.742998
O O18 0.250000 0.959017 0.750000
O O19 0.194815 0.250000 0.493567
#
# Coordination Sequence:
#
# PCOD9538855 Si02
#       7
#    16  16  16  16  16  16  16
#     4  10  23  42  60  85 118 157 206 264 319 369
#     4   9  20  38  60  93 133 167 202 248 307 382
#     4  10  21  37  57  84 118 153 191 242 299 355
#     4  10  21  35  55  82 115 156 200 245 293 351
#     4  10  22  39  61  89 119 159 206 254 309 372
#     4  10  22  38  59  85 115 155 202 253 301 370
#     4  10  21  36  60  86 118 162 202 248 308 372
#
# _framework density 20.637582999999999
#
# number of rings (size 3 to 8) (size 9 to 14) (size 15 to 20)
#    0.000    2.143    0.000    1.714    6.000    5.143 
#    0.000    5.000    0.000    3.000    0.000    0.000 
#    0.000    0.000    0.000    0.000    0.000    0.000 
#
# Total GULP energy -311841.325617 kJ/mol
# GULP energy per Si atom -5568.595100 kJ/mol
# Density = 2.059061 g / cm^3
# Si number density = 20.637583 Si / 1000 Ang^3
#
#
#
# Elastic Constant Matrix: (Units=GPa)
#
#
# Indices 1 2 3 4 5 6 
#
# 1 76.5253 19.4525 29.5119 0.0000 0.0000 0.0000
# 2 19.4525 60.1033 1.6538 0.0000 0.0000 0.0000
# 3 29.5119 1.6538 33.7958 0.0000 0.0000 0.0000
# 4 0.0000 0.0000 0.0000 12.5804 0.0000 0.0000
# 5 0.0000 0.0000 0.0000 0.0000 75.7728 0.0000
# 6 0.0000 0.0000 0.0000 0.0000 0.0000 17.9794
#
#
#
# Elastic Compliance Matrix: (Units=1/GPa)
#
#
# Indices 1 2 3 4 5 6 
#
# 1 0.022050 -0.006616 -0.018931 0.000000 0.000000 0.000000
# 2 -0.006616 0.018645 0.004865 0.000000 0.000000 0.000000
# 3 -0.018931 0.004865 0.045883 0.000000 0.000000 0.000000
# 4 0.000000 0.000000 0.000000 0.079488 0.000000 0.000000
# 5 0.000000 0.000000 0.000000 0.000000 0.013197 0.000000
# 6 0.000000 0.000000 0.000000 0.000000 0.000000 0.055619
#
#
# Mechanical properties :
#
#
# Convention : Reuss Voigt Hill
#
# Bulk Modulus (GPa) = 22.11713 30.18454 26.15084
# Shear Modulus (GPa) = 17.16329 29.25362 23.20845
#
# Velocity S-wave (km/s) = 2.88697 3.76904 3.35710
# Velocity P-wave (km/s) = 4.67471 5.79644 5.26553
#
# Compressibility (1/GPa) = 0.04521382
#
# Stress axis : x y z
#
# Youngs Moduli (GPa) = 45.35122 53.63277 21.79454
#
# Poissons Ratio (x) = 0.35482 0.41260
# Poissons Ratio (y) = 0.30003 -0.10602
# Poissons Ratio (z) = 0.85856 -0.26091
#
# Static dielectric constant tensor:
#      x y z
#    x 1.771750 0.000000 0.000000 
#    y 0.000000 1.754460 0.000000 
#    z 0.000000 0.000000 1.775380 
# 
# From -- ./inp_files/60173.got.cif
#   From: 2010.05.17/outbox.cif.g08.bks.cpg/sg74_31_cif.got.tgz:60173.got - 2010.06.03 17:57:02.
