data_PCOD9538459
_publ_section_title
;
Structure prediction by ZEFSAII (Michael W. Deem and Ramdas Pophale) SiO2 
 PCOD9538459
Probable space group: I M M A
;
_chemical_formula_sum "Si O2"
_cell_formula_units_Z 72
_cell_length_a 21.509977
_cell_length_b 14.885642
_cell_length_c 12.131063
_cell_angle_alpha 90.000000
_cell_angle_beta 90.000000
_cell_angle_gamma 90.000000
_cell_volume 3884.242843
_symmetry_space_group_name_H-M "I M M A"
_symmetry_group_IT_number 74
_symmetry_cell_setting 'orthorhombic'
loop_
_space_group_symop_operation_xyz
x,y,z
-x,1/2-y,z
x,-y,-z
-x,1/2+y,-z
-x,-y,-z
x,1/2+y,-z
-x,y,z
x,1/2-y,z
1/2+x,1/2+y,1/2+z
1/2-x,-y,1/2+z
1/2+x,1/2-y,1/2-z
1/2-x,y,1/2-z
1/2-x,1/2-y,1/2-z
1/2+x,y,1/2-z
1/2-x,1/2+y,1/2+z
1/2+x,-y,1/2+z
loop_
_atom_site_type_symbol
_atom_site_label
_atom_site_fract_x
_atom_site_fract_y
_atom_site_fract_z
Si Si1 0.342042 0.500000 0.500000
Si Si2 0.388709 0.145132 0.126062
Si Si3 0.754653 0.144587 0.119608
Si Si4 0.424870 0.992013 0.287493
Si Si5 0.427886 0.350319 0.891076
O O1 0.298445 0.579570 0.548844
O O2 0.387506 0.474590 0.600789
O O3 0.400478 0.250000 0.149850
O O4 0.317389 0.136235 0.087364
O O5 0.406244 0.086597 0.231472
O O6 0.425680 0.117398 0.016985
O O7 0.773650 0.250000 0.111805
O O8 0.750000 0.121357 0.250000
O O9 0.500000 0.989266 0.302255
O O10 0.402260 0.919605 0.196827
O O11 0.500000 0.342258 0.861615
O O12 0.399715 0.250000 0.887277
#
# Coordination Sequence:
#
# PCOD9538459 Si02
#       5
#     8  16  16  16  16
#     4  12  25  38  62  88 119 164 206 242 302 374
#     4  10  20  37  62  89 116 151 201 253 301 352
#     4  10  22  41  61  84 117 157 200 249 298 353
#     4  11  23  38  57  86 124 160 198 247 300 363
#     4   9  19  36  58  85 117 153 194 244 298 349
#
# _framework density 18.536431
#
# number of rings (size 3 to 8) (size 9 to 14) (size 15 to 20)
#    0.000    1.778    2.222    1.667    3.111    4.000 
#    0.000    0.000    0.000    8.667    0.000    0.000 
#    0.000    0.000    0.000    0.000    0.000    0.000 
#
# Total GULP energy -200664.272452 kJ/mol
# GULP energy per Si atom -5574.007568 kJ/mol
# Density = 1.849424 g / cm^3
# Si number density = 18.536431 Si / 1000 Ang^3
#
#
#
# Elastic Constant Matrix: (Units=GPa)
#
#
# Indices 1 2 3 4 5 6 
#
# 1 66.1288 37.4765 46.4945 0.0000 0.0000 0.0000
# 2 37.4765 89.0450 66.5854 0.0000 0.0000 0.0000
# 3 46.4945 66.5854 119.5126 0.0000 0.0000 0.0000
# 4 0.0000 0.0000 0.0000 -6.7003 0.0000 0.0000
# 5 0.0000 0.0000 0.0000 0.0000 43.9617 0.0000
# 6 0.0000 0.0000 0.0000 0.0000 0.0000 20.9005
#
#
#
# Elastic Compliance Matrix: (Units=1/GPa)
#
#
# Indices 1 2 3 4 5 6 
#
# 1 0.021996 -0.004900 -0.005827 0.000000 0.000000 0.000000
# 2 -0.004900 0.020342 -0.009427 0.000000 0.000000 0.000000
# 3 -0.005827 -0.009427 0.015886 0.000000 0.000000 0.000000
# 4 0.000000 0.000000 0.000000 -0.149248 0.000000 0.000000
# 5 0.000000 0.000000 0.000000 0.000000 0.022747 0.000000
# 6 0.000000 0.000000 0.000000 0.000000 0.000000 0.047846
#
#
# Mechanical properties :
#
#
# Convention : Reuss Voigt Hill
#
# Bulk Modulus (GPa) = 55.81658 63.97769 59.89714
# Shear Modulus (GPa) = 193.42853 19.90773 106.66813
#
# Velocity S-wave (km/s) = 10.22629 3.28072 7.59408
# Velocity P-wave (km/s) = 13.02356 6.99573 10.45355
#
# Compressibility (1/GPa) = 0.01791582
#
# Stress axis : x y z
#
# Youngs Moduli (GPa) = 45.46274 49.15989 62.94680
#
# Poissons Ratio (x) = 0.24089 0.36680
# Poissons Ratio (y) = 0.22277 0.59340
# Poissons Ratio (z) = 0.26492 0.46343
#
# Static dielectric constant tensor:
#      x y z
#    x 1.705830 0.000000 0.000000 
#    y 0.000000 1.697100 0.000000 
#    z 0.000000 0.000000 1.638590 
# 
# From -- ./inp_files/24826.got.cif
#   From: 2010.05.17/outbox.cif.g08.bks.cpg/sg74_13_cif.got.tgz:24826.got - 2010.06.03 17:57:02.
