data_PCOD9538931
_publ_section_title
;
Structure prediction by ZEFSAII (Michael W. Deem and Ramdas Pophale) SiO2 
 PCOD9538931
Probable space group: I M M A
;
_chemical_formula_sum "Si O2"
_cell_formula_units_Z 112
_cell_length_a 14.067048
_cell_length_b 25.748766
_cell_length_c 15.927953
_cell_angle_alpha 90.000000
_cell_angle_beta 90.000000
_cell_angle_gamma 90.000000
_cell_volume 5769.249955
_symmetry_space_group_name_H-M "I M M A"
_symmetry_group_IT_number 74
_symmetry_cell_setting 'orthorhombic'
loop_
_space_group_symop_operation_xyz
x,y,z
-x,1/2-y,z
x,-y,-z
-x,1/2+y,-z
-x,-y,-z
x,1/2+y,-z
-x,y,z
x,1/2-y,z
1/2+x,1/2+y,1/2+z
1/2-x,-y,1/2+z
1/2+x,1/2-y,1/2-z
1/2-x,y,1/2-z
1/2-x,1/2-y,1/2-z
1/2+x,y,1/2-z
1/2-x,1/2+y,1/2+z
1/2+x,-y,1/2+z
loop_
_atom_site_type_symbol
_atom_site_label
_atom_site_fract_x
_atom_site_fract_y
_atom_site_fract_z
Si Si1 0.612420 0.160475 0.604862
Si Si2 0.732012 0.906825 0.153108
Si Si3 0.894390 0.998189 0.599808
Si Si4 0.387187 0.691606 0.200370
Si Si5 0.611334 0.190422 0.284113
Si Si6 0.762993 0.191744 0.049783
Si Si7 0.112766 0.620806 0.620082
O O1 0.500000 0.157799 0.589680
O O2 0.667479 0.105605 0.610198
O O3 0.625891 0.184648 0.698479
O O4 0.667157 0.188728 0.529796
O O5 0.750000 0.917498 0.250000
O O6 0.670086 0.853551 0.153721
O O7 0.675798 0.955627 0.120404
O O8 0.864127 0.940170 0.625901
O O9 0.000000 0.007875 0.636457
O O10 0.902610 0.000000 0.500000
O O11 0.500000 0.686342 0.184694
O O12 0.357125 0.750000 0.176952
O O13 0.500000 0.186303 0.306735
O O14 0.628180 0.250000 0.255079
O O15 0.674280 0.182091 0.366455
O O16 0.628925 0.150968 0.207933
O O17 0.722792 0.250000 0.054360
O O18 0.679079 0.149557 0.052446
O O19 0.000000 0.624721 0.599639
#
# Coordination Sequence:
#
# PCOD9538931 Si02
#       7
#    16  16  16  16  16  16  16
#     4  10  21  36  54  80 113 146 181 219 264 321
#     4  10  21  36  58  83 108 141 181 222 267 320
#     4  10  21  39  61  81 104 137 179 227 276 327
#     4   9  18  34  57  84 113 142 174 218 269 320
#     4   9  18  33  53  79 111 145 183 225 267 317
#     4  11  21  33  54  81 111 149 186 220 264 321
#     4  10  21  36  55  79 107 141 181 228 279 323
#
# _framework density 19.413269
#
# number of rings (size 3 to 8) (size 9 to 14) (size 15 to 20)
#    0.000    2.143    0.000    3.000    0.000    8.286 
#    0.000    0.714    0.000    5.571    0.000    0.000 
#    0.000    0.000    0.000    0.000    0.000    0.000 
#
# Total GULP energy -312661.673090 kJ/mol
# GULP energy per Si atom -5583.244162 kJ/mol
# Density = 1.936908 g / cm^3
# Si number density = 19.413269 Si / 1000 Ang^3
#
#
#
# Elastic Constant Matrix: (Units=GPa)
#
#
# Indices 1 2 3 4 5 6 
#
# 1 89.3038 61.3455 26.6374 0.0000 0.0000 0.0000
# 2 61.3455 133.1017 36.6647 -0.0001 0.0000 0.0000
# 3 26.6374 36.6647 56.9385 -0.0002 0.0000 0.0000
# 4 0.0000 -0.0001 -0.0002 -0.6830 0.0000 0.0000
# 5 0.0000 0.0000 0.0000 0.0000 24.5538 0.0000
# 6 0.0000 0.0000 0.0000 0.0000 0.0000 32.0459
#
#
#
# Elastic Compliance Matrix: (Units=1/GPa)
#
#
# Indices 1 2 3 4 5 6 
#
# 1 0.016948 -0.006840 -0.003524 0.000002 0.000000 0.000000
# 2 -0.006840 0.011894 -0.004459 0.000000 0.000000 0.000000
# 3 -0.003524 -0.004459 0.022083 -0.000005 0.000000 0.000000
# 4 0.000002 0.000000 -0.000005 -1.464100 0.000000 0.000000
# 5 0.000000 0.000000 0.000000 0.000000 0.040727 0.000000
# 6 0.000000 0.000000 0.000000 0.000000 0.000000 0.031205
#
#
# Mechanical properties :
#
#
# Convention : Reuss Voigt Hill
#
# Bulk Modulus (GPa) = 46.99660 58.73769 52.86715
# Shear Modulus (GPa) = -3.83287 21.49644 8.83179
#
# Velocity S-wave (km/s) = -1.40664 3.33123 2.13524
# Velocity P-wave (km/s) = 4.65004 6.71702 5.77673
#
# Compressibility (1/GPa) = 0.02127813
#
# Stress axis : x y z
#
# Youngs Moduli (GPa) = 59.00517 84.07624 45.28458
#
# Poissons Ratio (x) = 0.57511 0.15958
# Poissons Ratio (y) = 0.40362 0.20192
# Poissons Ratio (z) = 0.20793 0.37488
#
# Static dielectric constant tensor:
#      x y z
#    x 1.718820 0.000000 0.000000 
#    y 0.000000 1.670540 0.000000 
#    z 0.000000 0.000000 1.690310 
# 
# From -- ./inp_files/32769.got.cif
#   From: 2010.05.17/outbox.cif.g08.bks.cpg/sg74_17_cif.got.tgz:32769.got - 2010.06.03 17:57:02.
