data_PCOD9538716
_publ_section_title
;
Structure prediction by ZEFSAII (Michael W. Deem and Ramdas Pophale) SiO2 
 PCOD9538716
Probable space group: I M M A
;
_chemical_formula_sum "Si O2"
_cell_formula_units_Z 56
_cell_length_a 14.212711
_cell_length_b 16.444731
_cell_length_c 11.014558
_cell_angle_alpha 90.000000
_cell_angle_beta 90.000000
_cell_angle_gamma 90.000000
_cell_volume 2574.368858
_symmetry_space_group_name_H-M "I M M A"
_symmetry_group_IT_number 74
_symmetry_cell_setting 'orthorhombic'
loop_
_space_group_symop_operation_xyz
x,y,z
-x,1/2-y,z
x,-y,-z
-x,1/2+y,-z
-x,-y,-z
x,1/2+y,-z
-x,y,z
x,1/2-y,z
1/2+x,1/2+y,1/2+z
1/2-x,-y,1/2+z
1/2+x,1/2-y,1/2-z
1/2-x,y,1/2-z
1/2-x,1/2-y,1/2-z
1/2+x,y,1/2-z
1/2-x,1/2+y,1/2+z
1/2+x,-y,1/2+z
loop_
_atom_site_type_symbol
_atom_site_label
_atom_site_fract_x
_atom_site_fract_y
_atom_site_fract_z
Si Si1 0.206019 0.895072 0.128831
Si Si2 0.500000 0.750000 0.288908
Si Si3 0.500000 0.250000 0.284883
Si Si4 0.846098 0.250000 0.005000
Si Si5 0.657839 0.500000 0.000000
Si Si6 0.000000 0.411316 0.377545
Si Si7 0.500000 0.073848 0.716035
O O1 0.250000 0.855278 0.250000
O O2 0.210562 0.832627 0.016438
O O3 0.098040 0.923823 0.142610
O O4 0.274334 0.970409 0.105824
O O5 0.412936 0.750000 0.383659
O O6 0.500000 0.836083 0.220714
O O7 0.410273 0.250000 0.376135
O O8 0.500000 0.169537 0.201769
O O9 0.591353 0.574105 0.960162
O O10 0.000000 0.493239 0.294998
#
# Coordination Sequence:
#
# PCOD9538716 Si02
#       7
#    16   4   4   8   8   8   8
#     4  11  22  40  67 102 135 177 224 304 348 418
#     4   7  16  36  59 100 124 159 208 284 339 398
#     4  11  26  48  71  96 146 193 242 286 339 416
#     4   9  21  39  64 101 133 168 233 278 348 416
#     4  11  26  43  68 100 134 181 240 275 378 426
#     4  11  25  48  64  96 145 189 229 292 348 436
#     4  10  20  40  69  93 136 176 224 294 355 401
#
# _framework density 21.752904000000001
#
# number of rings (size 3 to 8) (size 9 to 14) (size 15 to 20)
#    0.000    1.714    2.857    1.286    4.000    1.714 
#    0.000    4.286    0.000    0.000    0.000    0.000 
#    0.000    0.000    0.000    0.000    0.000    0.000 
#
# Total GULP energy -156149.115344 kJ/mol
# GULP energy per Si atom -5576.754119 kJ/mol
# Density = 2.170339 g / cm^3
# Si number density = 21.752904 Si / 1000 Ang^3
#
#
#
# Elastic Constant Matrix: (Units=GPa)
#
#
# Indices 1 2 3 4 5 6 
#
# 1 156.1954 35.3979 41.3442 0.0000 0.0000 0.0000
# 2 35.3979 110.3876 43.3485 0.0000 0.0000 0.0000
# 3 41.3442 43.3485 76.9319 0.0000 0.0000 0.0000
# 4 0.0000 0.0000 0.0000 36.6434 0.0000 0.0000
# 5 0.0000 0.0000 0.0000 0.0000 12.3227 0.0000
# 6 0.0000 0.0000 0.0000 0.0000 0.0000 16.3575
#
#
#
# Elastic Compliance Matrix: (Units=1/GPa)
#
#
# Indices 1 2 3 4 5 6 
#
# 1 0.007560 -0.001064 -0.003463 0.000000 0.000000 0.000000
# 2 -0.001064 0.011783 -0.006067 0.000000 0.000000 0.000000
# 3 -0.003463 -0.006067 0.018278 0.000000 0.000000 0.000000
# 4 0.000000 0.000000 0.000000 0.027290 0.000000 0.000000
# 5 0.000000 0.000000 0.000000 0.000000 0.081151 0.000000
# 6 0.000000 0.000000 0.000000 0.000000 0.000000 0.061134
#
#
# Mechanical properties :
#
#
# Convention : Reuss Voigt Hill
#
# Bulk Modulus (GPa) = 60.85762 64.85512 62.85637
# Shear Modulus (GPa) = 21.38000 27.95967 24.66984
#
# Velocity S-wave (km/s) = 3.13846 3.58904 3.37128
# Velocity P-wave (km/s) = 6.41644 6.85960 6.64172
#
# Compressibility (1/GPa) = 0.01643180
#
# Stress axis : x y z
#
# Youngs Moduli (GPa) = 132.27272 84.86909 54.70947
#
# Poissons Ratio (x) = 0.09033 0.18947
# Poissons Ratio (y) = 0.14078 0.33194
# Poissons Ratio (z) = 0.45809 0.51492
#
# Static dielectric constant tensor:
#      x y z
#    x 1.838910 0.000000 0.000000 
#    y 0.000000 1.842550 0.000000 
#    z 0.000000 0.000000 1.833290 
# 
# From -- ./inp_files/19664.got.cif
#   From: 2010.05.17/outbox.cif.g08.bks.cpg/sg74_10_cif.got.tgz:19664.got - 2010.06.03 17:57:02.
