data_PCOD9538571
_publ_section_title
;
Structure prediction by ZEFSAII (Michael W. Deem and Ramdas Pophale) SiO2 
 PCOD9538571
Probable space group: I M M A
;
_chemical_formula_sum "Si O2"
_cell_formula_units_Z 60
_cell_length_a 9.951521
_cell_length_b 23.399754
_cell_length_c 13.012407
_cell_angle_alpha 90.000000
_cell_angle_beta 90.000000
_cell_angle_gamma 90.000000
_cell_volume 3030.109996
_symmetry_space_group_name_H-M "I M M A"
_symmetry_group_IT_number 74
_symmetry_cell_setting 'orthorhombic'
loop_
_space_group_symop_operation_xyz
x,y,z
-x,1/2-y,z
x,-y,-z
-x,1/2+y,-z
-x,-y,-z
x,1/2+y,-z
-x,y,z
x,1/2-y,z
1/2+x,1/2+y,1/2+z
1/2-x,-y,1/2+z
1/2+x,1/2-y,1/2-z
1/2-x,y,1/2-z
1/2-x,1/2-y,1/2-z
1/2+x,y,1/2-z
1/2-x,1/2+y,1/2+z
1/2+x,-y,1/2+z
loop_
_atom_site_type_symbol
_atom_site_label
_atom_site_fract_x
_atom_site_fract_y
_atom_site_fract_z
Si Si1 0.500000 0.374445 0.526109
Si Si2 0.207502 0.375350 0.432065
Si Si3 0.000000 0.939696 0.438228
Si Si4 0.750000 0.454851 0.250000
Si Si5 0.000000 0.750000 0.006025
Si Si6 0.730207 0.750000 0.872605
Si Si7 0.000000 0.529296 0.199996
O O1 0.365878 0.379034 0.457643
O O2 0.500000 0.309127 0.568062
O O3 0.500000 0.421519 0.614821
O O4 0.127667 0.403162 0.525533
O O5 0.179707 0.414309 0.333142
O O6 0.167118 0.310171 0.407440
O O7 0.000000 0.948745 0.317220
O O8 0.000000 0.000000 0.500000
O O9 0.636743 0.492418 0.306466
O O10 0.127453 0.750000 0.931094
O O11 0.750000 0.750000 0.750000
#
# Coordination Sequence:
#
# PCOD9538571 Si02
#       7
#     8  16   8   8   4   8   8
#     4  10  23  41  64  88 117 165 207 248 296 362
#     4  11  23  40  62  91 126 155 198 251 304 360
#     4  12  24  42  57  85 130 159 192 258 302 347
#     4  12  22  37  60  93 120 160 196 244 306 366
#     4   8  20  40  60  88 122 150 204 264 294 342
#     4  10  20  38  63  90 119 157 198 245 307 366
#     4  12  25  38  62  86 119 166 208 239 302 357
#
# _framework density 19.801261
#
# number of rings (size 3 to 8) (size 9 to 14) (size 15 to 20)
#    0.000    1.067    4.000    2.400    0.000    2.667 
#    0.000    1.333    0.000    5.600    0.000    0.000 
#    0.000    0.000    0.000    0.000    0.000    0.000 
#
# Total GULP energy -167618.718187 kJ/mol
# GULP energy per Si atom -5587.290606 kJ/mol
# Density = 1.975619 g / cm^3
# Si number density = 19.801261 Si / 1000 Ang^3
#
#
#
# Elastic Constant Matrix: (Units=GPa)
#
#
# Indices 1 2 3 4 5 6 
#
# 1 80.8532 31.1063 -14.4821 0.0000 0.0000 0.0000
# 2 31.1063 177.6041 50.4861 0.0001 0.0000 0.0000
# 3 -14.4821 50.4861 68.0292 0.0000 0.0000 0.0000
# 4 0.0000 0.0001 0.0000 43.1180 0.0000 0.0000
# 5 0.0000 0.0000 0.0000 0.0000 0.1975 0.0000
# 6 0.0000 0.0000 0.0000 0.0000 0.0000 -7.0142
#
#
#
# Elastic Compliance Matrix: (Units=1/GPa)
#
#
# Indices 1 2 3 4 5 6 
#
# 1 0.015321 -0.004576 0.006657 0.000000 0.000001 0.000000
# 2 -0.004576 0.008502 -0.007284 0.000000 0.000000 0.000000
# 3 0.006657 -0.007284 0.021522 0.000000 0.000003 0.000000
# 4 0.000000 0.000000 0.000000 0.023192 0.000003 0.000000
# 5 0.000001 0.000000 0.000003 0.000003 5.062602 0.000006
# 6 0.000000 0.000000 0.000000 0.000000 0.000006 -0.142569
#
#
# Mechanical properties :
#
#
# Convention : Reuss Voigt Hill
#
# Bulk Modulus (GPa) = 28.61974 51.18969 39.90471
# Shear Modulus (GPa) = 0.99788 24.55202 12.77495
#
# Velocity S-wave (km/s) = 0.71066 3.52507 2.54275
# Velocity P-wave (km/s) = 3.89336 6.51736 5.36816
#
# Compressibility (1/GPa) = 0.03494092
#
# Stress axis : x y z
#
# Youngs Moduli (GPa) = 65.27011 117.61259 46.46320
#
# Poissons Ratio (x) = 0.53817 -0.30932
# Poissons Ratio (y) = 0.29866 0.33844
# Poissons Ratio (z) = -0.43453 0.85669
#
# Static dielectric constant tensor:
#      x y z
#    x 1.694150 0.000000 0.000000 
#    y 0.000000 1.726210 0.000000 
#    z 0.000000 0.000000 1.647110 
# 
# From -- ./inp_files/18504.got.cif
#   From: 2010.05.17/outbox.cif.g08.bks.cpg/sg74_10_cif.got.tgz:18504.got - 2010.06.03 17:57:02.
