data_PCOD9538859
_publ_section_title
;
Structure prediction by ZEFSAII (Michael W. Deem and Ramdas Pophale) SiO2 
 PCOD9538859
Probable space group: I M M A
;
_chemical_formula_sum "Si O2"
_cell_formula_units_Z 112
_cell_length_a 27.559865
_cell_length_b 13.668278
_cell_length_c 14.885175
_cell_angle_alpha 90.000000
_cell_angle_beta 90.000000
_cell_angle_gamma 90.000000
_cell_volume 5607.184341
_symmetry_space_group_name_H-M "I M M A"
_symmetry_group_IT_number 74
_symmetry_cell_setting 'orthorhombic'
loop_
_space_group_symop_operation_xyz
x,y,z
-x,1/2-y,z
x,-y,-z
-x,1/2+y,-z
-x,-y,-z
x,1/2+y,-z
-x,y,z
x,1/2-y,z
1/2+x,1/2+y,1/2+z
1/2-x,-y,1/2+z
1/2+x,1/2-y,1/2-z
1/2-x,y,1/2-z
1/2-x,1/2-y,1/2-z
1/2+x,y,1/2-z
1/2-x,1/2+y,1/2+z
1/2+x,-y,1/2+z
loop_
_atom_site_type_symbol
_atom_site_label
_atom_site_fract_x
_atom_site_fract_y
_atom_site_fract_z
Si Si1 0.667692 0.137891 0.459104
Si Si2 0.863407 0.053897 0.857285
Si Si3 0.639266 0.137114 0.101026
Si Si4 0.943866 0.631522 0.470460
Si Si5 0.558044 0.134261 0.767333
Si Si6 0.227567 0.861222 0.460396
Si Si7 0.298040 0.505642 0.207917
O O1 0.663065 0.250000 0.428760
O O2 0.641835 0.121339 0.555251
O O3 0.724305 0.116851 0.481612
O O4 0.646793 0.056090 0.392591
O O5 0.913401 0.072677 0.806211
O O6 0.821635 0.074453 0.783815
O O7 0.632223 0.250000 0.129345
O O8 0.660676 0.070589 0.179224
O O9 0.591147 0.099749 0.050588
O O10 0.681166 0.135810 0.025115
O O11 0.942017 0.750000 0.471547
O O12 0.927637 0.605841 0.369342
O O13 0.000000 0.604481 0.483083
O O14 0.500000 0.123549 0.761268
O O15 0.569284 0.250000 0.755661
O O16 0.233281 0.750000 0.426773
O O17 0.218131 0.933907 0.378978
O O18 0.250000 0.457325 0.250000
#
# Coordination Sequence:
#
# PCOD9538859 Si02
#       7
#    16  16  16  16  16  16  16
#     4  10  22  40  58  78 110 154 195 238 294 351
#     4  11  22  36  59  86 111 149 193 241 289 346
#     4  10  21  35  55  83 117 159 196 229 281 347
#     4   8  15  32  58  87 120 156 193 232 278 337
#     4   9  18  35  61  92 123 151 185 235 290 341
#     4  10  21  37  56  78 111 152 194 236 284 344
#     4  12  23  35  55  83 119 151 192 241 288 338
#
# _framework density 19.974373
#
# number of rings (size 3 to 8) (size 9 to 14) (size 15 to 20)
#    0.000    2.000    1.429    3.429    2.000    3.429 
#    0.000    2.143    0.000    4.714    0.000    0.000 
#    0.000    1.143    0.000    0.000    0.000    0.000 
#
# Total GULP energy -312923.765951 kJ/mol
# GULP energy per Si atom -5587.924392 kJ/mol
# Density = 1.992891 g / cm^3
# Si number density = 19.974373 Si / 1000 Ang^3
#
#
#
# Elastic Constant Matrix: (Units=GPa)
#
#
# Indices 1 2 3 4 5 6 
#
# 1 70.4810 21.2100 39.9773 0.0000 0.0000 0.0000
# 2 21.2100 102.7821 31.4547 0.0000 0.0000 0.0000
# 3 39.9773 31.4547 75.2491 0.0000 0.0000 0.0000
# 4 0.0000 0.0000 0.0000 14.2988 0.0000 0.0000
# 5 0.0000 0.0000 0.0000 0.0000 42.8142 0.0000
# 6 0.0000 0.0000 0.0000 0.0000 0.0000 15.0932
#
#
#
# Elastic Compliance Matrix: (Units=1/GPa)
#
#
# Indices 1 2 3 4 5 6 
#
# 1 0.020401 -0.001024 -0.010410 0.000000 0.000000 0.000000
# 2 -0.001024 0.011208 -0.004141 0.000000 0.000000 0.000000
# 3 -0.010410 -0.004141 0.020551 0.000000 0.000000 0.000000
# 4 0.000000 0.000000 0.000000 0.069936 0.000000 0.000000
# 5 0.000000 0.000000 0.000000 0.000000 0.023357 0.000000
# 6 0.000000 0.000000 0.000000 0.000000 0.000000 0.066255
#
#
# Mechanical properties :
#
#
# Convention : Reuss Voigt Hill
#
# Bulk Modulus (GPa) = 47.59832 48.19960 47.89896
# Shear Modulus (GPa) = 20.01107 24.83259 22.42183
#
# Velocity S-wave (km/s) = 3.16862 3.52976 3.35405
# Velocity P-wave (km/s) = 6.10477 6.38713 6.24755
#
# Compressibility (1/GPa) = 0.02100914
#
# Stress axis : x y z
#
# Youngs Moduli (GPa) = 49.01660 89.22278 48.65982
#
# Poissons Ratio (x) = 0.09137 0.50657
# Poissons Ratio (y) = 0.05020 0.20150
# Poissons Ratio (z) = 0.51028 0.36947
#
# Static dielectric constant tensor:
#      x y z
#    x 1.706540 0.000000 0.000000 
#    y 0.000000 1.754540 0.000000 
#    z 0.000000 0.000000 1.688050 
# 
# From -- ./inp_files/32880.got.cif
#   From: 2010.05.17/outbox.cif.g08.bks.cpg/sg74_17_cif.got.tgz:32880.got - 2010.06.03 17:57:02.
