data_PCOD9538365
_publ_section_title
;
Structure prediction by ZEFSAII (Michael W. Deem and Ramdas Pophale) SiO2 
 PCOD9538365
Probable space group: I M M A
;
_chemical_formula_sum "Si O2"
_cell_formula_units_Z 72
_cell_length_a 23.279234
_cell_length_b 9.968512
_cell_length_c 13.552179
_cell_angle_alpha 90.000000
_cell_angle_beta 90.000000
_cell_angle_gamma 90.000000
_cell_volume 3144.909490
_symmetry_space_group_name_H-M "I M M A"
_symmetry_group_IT_number 74
_symmetry_cell_setting 'orthorhombic'
loop_
_space_group_symop_operation_xyz
x,y,z
-x,1/2-y,z
x,-y,-z
-x,1/2+y,-z
-x,-y,-z
x,1/2+y,-z
-x,y,z
x,1/2-y,z
1/2+x,1/2+y,1/2+z
1/2-x,-y,1/2+z
1/2+x,1/2-y,1/2-z
1/2-x,y,1/2-z
1/2-x,1/2-y,1/2-z
1/2+x,y,1/2-z
1/2-x,1/2+y,1/2+z
1/2+x,-y,1/2+z
loop_
_atom_site_type_symbol
_atom_site_label
_atom_site_fract_x
_atom_site_fract_y
_atom_site_fract_z
Si Si1 0.410520 0.750000 0.568243
Si Si2 0.750000 0.997210 0.250000
Si Si3 0.065829 0.987436 0.787469
Si Si4 0.070080 0.606965 0.575121
Si Si5 0.240787 0.250000 0.613531
Si Si6 0.622084 0.250000 0.644423
Si Si7 0.224006 0.250000 0.106530
O O1 0.432441 0.618044 0.623544
O O2 0.419238 0.750000 0.452087
O O3 0.342261 0.750000 0.576658
O O4 0.778286 0.885295 0.326696
O O5 0.770785 0.111054 0.169717
O O6 0.105676 0.113822 0.802220
O O7 0.000000 0.032158 0.773320
O O8 0.085589 0.913454 0.688258
O O9 0.092948 0.500000 0.500000
O O10 0.089191 0.750000 0.539061
O O11 0.000000 0.603488 0.572954
O O12 0.310435 0.250000 0.625068
O O13 0.236328 0.250000 0.493179
#
# Coordination Sequence:
#
# PCOD9538365 Si02
#       7
#     8   8  16  16   8   8   8
#     4  11  22  39  59  82 120 162 200 241 290 344
#     4  10  20  36  66  94 112 148 192 240 300 350
#     4  11  22  36  55  84 120 160 207 253 290 331
#     4   9  18  33  54  76  99 137 193 251 299 341
#     4  10  21  40  62  91 124 153 197 241 289 367
#     4  11  24  37  57  86 118 162 200 241 288 346
#     4  10  21  38  64  95 120 153 199 237 289 371
#
# _framework density 22.89414
#
# number of rings (size 3 to 8) (size 9 to 14) (size 15 to 20)
#    0.000    1.778    1.111    3.333    1.556    6.222 
#    0.000    0.000    0.000   26.667    0.000    0.000 
#    0.000    0.000    0.000    0.000    0.000    0.000 
#
# Total GULP energy -200653.798467 kJ/mol
# GULP energy per Si atom -5573.716624 kJ/mol
# Density = 2.284203 g / cm^3
# Si number density = 22.894140 Si / 1000 Ang^3
#
#
#
# Elastic Constant Matrix: (Units=GPa)
#
#
# Indices 1 2 3 4 5 6 
#
# 1 37.9105 23.4415 16.1889 0.0000 0.0000 0.0000
# 2 23.4415 180.4306 40.8260 0.0000 0.0000 0.0000
# 3 16.1889 40.8260 99.4748 0.0000 0.0000 0.0000
# 4 0.0000 0.0000 0.0000 32.3242 0.0000 0.0000
# 5 0.0000 0.0000 0.0000 0.0000 22.0035 0.0000
# 6 0.0000 0.0000 0.0000 0.0000 0.0000 14.2884
#
#
#
# Elastic Compliance Matrix: (Units=1/GPa)
#
#
# Indices 1 2 3 4 5 6 
#
# 1 0.029804 -0.003059 -0.003595 0.000000 0.000000 0.000000
# 2 -0.003059 0.006424 -0.002139 0.000000 0.000000 0.000000
# 3 -0.003595 -0.002139 0.011516 0.000000 0.000000 0.000000
# 4 0.000000 0.000000 0.000000 0.030937 0.000000 0.000000
# 5 0.000000 0.000000 0.000000 0.000000 0.045447 0.000000
# 6 0.000000 0.000000 0.000000 0.000000 0.000000 0.069987
#
#
# Mechanical properties :
#
#
# Convention : Reuss Voigt Hill
#
# Bulk Modulus (GPa) = 33.15783 53.19209 43.17496
# Shear Modulus (GPa) = 22.54770 29.54720 26.04745
#
# Velocity S-wave (km/s) = 3.14167 3.59639 3.37669
# Velocity P-wave (km/s) = 5.26067 6.36630 5.83971
#
# Compressibility (1/GPa) = 0.03015879
#
# Stress axis : x y z
#
# Youngs Moduli (GPa) = 33.55204 155.67653 86.83894
#
# Poissons Ratio (x) = 0.47617 0.31220
# Poissons Ratio (y) = 0.10263 0.18571
# Poissons Ratio (z) = 0.12062 0.33292
#
# Static dielectric constant tensor:
#      x y z
#    x 1.881000 0.000000 0.000000 
#    y 0.000000 1.797870 0.000000 
#    z 0.000000 0.000000 1.899530 
# 
# From -- ./inp_files/37693.got.cif
#   From: 2010.05.17/outbox.cif.g08.bks.cpg/sg74_19_cif.got.tgz:37693.got - 2010.06.03 17:57:02.
