data_PCOD9538056
_publ_section_title
;
Structure prediction by ZEFSAII (Michael W. Deem and Ramdas Pophale) SiO2 
 PCOD9538056
Probable space group: I M M A
;
_chemical_formula_sum "Si O2"
_cell_formula_units_Z 104
_cell_length_a 24.311135
_cell_length_b 9.119774
_cell_length_c 25.950844
_cell_angle_alpha 90.000000
_cell_angle_beta 90.000000
_cell_angle_gamma 90.000000
_cell_volume 5753.615001
_symmetry_space_group_name_H-M "I M M A"
_symmetry_group_IT_number 74
_symmetry_cell_setting 'orthorhombic'
loop_
_space_group_symop_operation_xyz
x,y,z
-x,1/2-y,z
x,-y,-z
-x,1/2+y,-z
-x,-y,-z
x,1/2+y,-z
-x,y,z
x,1/2-y,z
1/2+x,1/2+y,1/2+z
1/2-x,-y,1/2+z
1/2+x,1/2-y,1/2-z
1/2-x,y,1/2-z
1/2-x,1/2-y,1/2-z
1/2+x,y,1/2-z
1/2-x,1/2+y,1/2+z
1/2+x,-y,1/2+z
loop_
_atom_site_type_symbol
_atom_site_label
_atom_site_fract_x
_atom_site_fract_y
_atom_site_fract_z
Si Si1 0.565122 0.425935 0.446477
Si Si2 0.935210 0.926840 0.728456
Si Si3 0.229347 0.582135 0.197544
Si Si4 0.120156 0.573741 0.838199
Si Si5 0.118702 0.576226 0.555314
Si Si6 0.849439 0.416501 0.650319
Si Si7 0.500000 0.576937 0.945134
O O1 0.584324 0.500000 0.500000
O O2 0.500000 0.458074 0.441094
O O3 0.571171 0.250000 0.451217
O O4 0.594714 0.472454 0.393324
O O5 0.930531 0.750000 0.720692
O O6 0.917683 0.959496 0.787887
O O7 0.000000 0.964908 0.719737
O O8 0.891090 0.006702 0.691073
O O9 0.210158 0.750000 0.208800
O O10 0.250000 0.506994 0.250000
O O11 0.179393 0.498623 0.171307
O O12 0.286770 0.591550 0.168557
O O13 0.125347 0.750000 0.839521
O O14 0.123083 0.500000 0.500000
O O15 0.124520 0.750000 0.549629
O O16 0.156286 0.507217 0.597855
O O17 0.057932 0.541838 0.579245
O O18 0.869268 0.250000 0.640990
O O19 0.500000 0.750000 0.954234
O O20 0.500000 0.500000 0.000000
#
# Coordination Sequence:
#
# PCOD9538056 Si02
#       7
#    16  16  16  16  16  16   8
#     4   9  18  34  56  85 121 156 190 231 282 340
#     4  10  21  36  55  82 115 147 180 226 283 338
#     4  10  21  39  58  78 110 148 187 234 283 331
#     4  10  20  35  59  86 112 146 191 236 280 336
#     4  10  20  36  56  79 108 141 179 223 272 325
#     4  11  23  38  56  80 110 147 188 229 279 331
#     4   8  16  30  50  74 100 132 168 208 255 308
#
# _framework density 18.075593000000001
#
# number of rings (size 3 to 8) (size 9 to 14) (size 15 to 20)
#    0.000    2.154    1.538    1.385    1.077    4.923 
#    0.000    0.769    0.000    4.615    0.000    0.000 
#    0.000    0.000    0.000    0.000    0.000    0.000 
#
# Total GULP energy -289587.777358 kJ/mol
# GULP energy per Si atom -5568.995718 kJ/mol
# Density = 1.803445 g / cm^3
# Si number density = 18.075593 Si / 1000 Ang^3
#
#
#
# Elastic Constant Matrix: (Units=GPa)
#
#
# Indices 1 2 3 4 5 6 
#
# 1 86.1272 30.8244 44.8759 0.0000 0.0000 0.0000
# 2 30.8244 43.7633 46.5348 0.0000 0.0000 0.0000
# 3 44.8759 46.5348 126.5934 0.0000 0.0000 0.0000
# 4 0.0000 0.0000 0.0000 24.3853 0.0000 0.0000
# 5 0.0000 0.0000 0.0000 0.0000 29.3993 0.0000
# 6 0.0000 0.0000 0.0000 0.0000 0.0000 5.1915
#
#
#
# Elastic Compliance Matrix: (Units=1/GPa)
#
#
# Indices 1 2 3 4 5 6 
#
# 1 0.015995 -0.008598 -0.002510 0.000000 0.000000 0.000000
# 2 -0.008598 0.042134 -0.012440 0.000000 0.000000 0.000000
# 3 -0.002510 -0.012440 0.013362 0.000000 0.000000 0.000000
# 4 0.000000 0.000000 0.000000 0.041008 0.000000 0.000000
# 5 0.000000 0.000000 0.000000 0.000000 0.034014 0.000000
# 6 0.000000 0.000000 0.000000 0.000000 0.000000 0.192622
#
#
# Mechanical properties :
#
#
# Convention : Reuss Voigt Hill
#
# Bulk Modulus (GPa) = 40.99037 55.66159 48.32598
# Shear Modulus (GPa) = 12.67865 20.74514 16.71189
#
# Velocity S-wave (km/s) = 2.65131 3.39143 3.04395
# Velocity P-wave (km/s) = 5.66560 6.79679 6.25681
#
# Compressibility (1/GPa) = 0.02439597
#
# Stress axis : x y z
#
# Youngs Moduli (GPa) = 62.51773 23.73372 74.83892
#
# Poissons Ratio (x) = 0.20405 0.18783
# Poissons Ratio (y) = 0.53750 0.93103
# Poissons Ratio (z) = 0.15691 0.29526
#
# Static dielectric constant tensor:
#      x y z
#    x -23.319900 0.000000 0.000000 
#    y 0.000000 1.609180 0.000000 
#    z 0.000000 0.000000 1.622410 
# 
# From -- ./inp_files/64805.got.cif
#   From: 2010.05.17/outbox.cif.g08.bks.cpg/sg74_33_cif.got.tgz:64805.got - 2010.06.03 17:57:02.
