data_PCOD9538043
_publ_section_title
;
Structure prediction by ZEFSAII (Michael W. Deem and Ramdas Pophale) SiO2 
 PCOD9538043
Probable space group: I M M A
;
_chemical_formula_sum "Si O2"
_cell_formula_units_Z 112
_cell_length_a 21.560381
_cell_length_b 24.897850
_cell_length_c 11.410242
_cell_angle_alpha 90.000000
_cell_angle_beta 90.000000
_cell_angle_gamma 90.000000
_cell_volume 6125.099284
_symmetry_space_group_name_H-M "I M M A"
_symmetry_group_IT_number 74
_symmetry_cell_setting 'orthorhombic'
loop_
_space_group_symop_operation_xyz
x,y,z
-x,1/2-y,z
x,-y,-z
-x,1/2+y,-z
-x,-y,-z
x,1/2+y,-z
-x,y,z
x,1/2-y,z
1/2+x,1/2+y,1/2+z
1/2-x,-y,1/2+z
1/2+x,1/2-y,1/2-z
1/2-x,y,1/2-z
1/2-x,1/2-y,1/2-z
1/2+x,y,1/2-z
1/2-x,1/2+y,1/2+z
1/2+x,-y,1/2+z
loop_
_atom_site_type_symbol
_atom_site_label
_atom_site_fract_x
_atom_site_fract_y
_atom_site_fract_z
Si Si1 0.931380 0.081560 0.814308
Si Si2 0.259234 0.461968 0.888733
Si Si3 0.927666 0.459013 0.131428
Si Si4 0.097055 0.943138 0.444520
Si Si5 0.660289 0.882493 0.476619
Si Si6 0.817919 0.314188 0.201103
Si Si7 0.428280 0.624099 0.833003
O O1 0.933172 0.074977 0.675917
O O2 0.885736 0.125664 0.867308
O O3 0.000000 0.092800 0.857813
O O4 0.911734 0.021466 0.856704
O O5 0.250000 0.478734 0.750000
O O6 0.331549 0.452229 0.909128
O O7 0.220175 0.408882 0.917465
O O8 0.240668 0.500000 0.000000
O O9 0.925780 0.430594 0.256991
O O10 0.000000 0.455283 0.093431
O O11 0.879174 0.425125 0.055657
O O12 0.088108 0.895900 0.537917
O O13 0.074856 0.000000 0.500000
O O14 0.675244 0.835903 0.568251
O O15 0.820420 0.250000 0.204611
O O16 0.750000 0.331748 0.250000
O O17 0.875211 0.338114 0.277275
O O18 0.500000 0.644201 0.825431
#
# Coordination Sequence:
#
# PCOD9538043 Si02
#       7
#    16  16  16  16  16  16  16
#     4  11  20  31  50  78 118 161 196 225 269 336
#     4  11  23  35  53  82 125 169 210 247 290 351
#     4   9  18  31  50  78 115 157 195 232 277 337
#     4  11  21  33  52  81 122 168 205 232 281 341
#     4  11  21  35  55  79 113 144 194 242 298 346
#     4  10  23  44  68  88 108 144 195 256 320 374
#     4  10  20  35  58  90 122 156 199 249 298 350
#
# _framework density 18.285416999999999
#
# number of rings (size 3 to 8) (size 9 to 14) (size 15 to 20)
#    0.000    1.571    2.857    3.000    0.000    4.286 
#    0.000    0.000    0.000    1.286    0.000    0.000 
#    0.000    0.000    0.000    0.000    0.000    0.000 
#
# Total GULP energy -312081.899435 kJ/mol
# GULP energy per Si atom -5572.891061 kJ/mol
# Density = 1.824380 g / cm^3
# Si number density = 18.285417 Si / 1000 Ang^3
#
#
#
# Elastic Constant Matrix: (Units=GPa)
#
#
# Indices 1 2 3 4 5 6 
#
# 1 98.4797 30.4462 30.4886 0.0000 0.0000 0.0000
# 2 30.4462 49.1662 28.7000 0.0000 0.0000 0.0000
# 3 30.4886 28.7000 121.8099 0.0000 0.0000 0.0000
# 4 0.0000 0.0000 0.0000 15.7957 0.0000 0.0000
# 5 0.0000 0.0000 0.0000 0.0000 32.3957 0.0000
# 6 0.0000 0.0000 0.0000 0.0000 0.0000 13.3261
#
#
#
# Elastic Compliance Matrix: (Units=1/GPa)
#
#
# Indices 1 2 3 4 5 6 
#
# 1 0.012806 -0.007025 -0.001550 0.000000 0.000000 0.000000
# 2 -0.007025 0.027437 -0.004706 0.000000 0.000000 0.000000
# 3 -0.001550 -0.004706 0.009706 0.000000 0.000000 0.000000
# 4 0.000000 0.000000 0.000000 0.063308 0.000000 0.000000
# 5 0.000000 0.000000 0.000000 0.000000 0.030868 0.000000
# 6 0.000000 0.000000 0.000000 0.000000 0.000000 0.075041
#
#
# Mechanical properties :
#
#
# Convention : Reuss Voigt Hill
#
# Bulk Modulus (GPa) = 42.76021 49.85838 46.30930
# Shear Modulus (GPa) = 19.72190 24.29157 22.00674
#
# Velocity S-wave (km/s) = 3.28771 3.64877 3.47293
# Velocity P-wave (km/s) = 6.15204 6.71396 6.43914
#
# Compressibility (1/GPa) = 0.02338623
#
# Stress axis : x y z
#
# Youngs Moduli (GPa) = 78.08671 36.44744 103.02598
#
# Poissons Ratio (x) = 0.25606 0.15970
# Poissons Ratio (y) = 0.54860 0.48484
# Poissons Ratio (z) = 0.12104 0.17152
#
# Static dielectric constant tensor:
#      x y z
#    x 1.679030 0.000000 0.000000 
#    y 0.000000 1.586940 0.000000 
#    z 0.000000 0.000000 1.711280 
# 
# From -- ./inp_files/24182.got.cif
#   From: 2010.05.17/outbox.cif.g08.bks.cpg/sg74_13_cif.got.tgz:24182.got - 2010.06.03 17:57:02.
