data_PCOD9539602
_publ_section_title
;
Structure prediction by ZEFSAII (Michael W. Deem and Ramdas Pophale) SiO2 
 PCOD9539602
Probable space group: I M M A
;
_chemical_formula_sum "Si O2"
_cell_formula_units_Z 72
_cell_length_a 27.930032
_cell_length_b 14.251195
_cell_length_c 9.527385
_cell_angle_alpha 90.000000
_cell_angle_beta 90.000000
_cell_angle_gamma 90.000000
_cell_volume 3792.245383
_symmetry_space_group_name_H-M "I M M A"
_symmetry_group_IT_number 74
_symmetry_cell_setting 'orthorhombic'
loop_
_space_group_symop_operation_xyz
x,y,z
-x,1/2-y,z
x,-y,-z
-x,1/2+y,-z
-x,-y,-z
x,1/2+y,-z
-x,y,z
x,1/2-y,z
1/2+x,1/2+y,1/2+z
1/2-x,-y,1/2+z
1/2+x,1/2-y,1/2-z
1/2-x,y,1/2-z
1/2-x,1/2-y,1/2-z
1/2+x,y,1/2-z
1/2-x,1/2+y,1/2+z
1/2+x,-y,1/2+z
loop_
_atom_site_type_symbol
_atom_site_label
_atom_site_fract_x
_atom_site_fract_y
_atom_site_fract_z
Si Si1 0.054700 0.362063 0.925980
Si Si2 0.846197 0.861548 0.518085
Si Si3 0.946917 0.363729 0.599410
Si Si4 0.306423 0.983441 0.223690
Si Si5 0.631140 0.500000 0.500000
O O1 0.060009 0.250000 0.931445
O O2 0.060598 0.392341 0.762215
O O3 0.094727 0.413005 0.016575
O O4 0.000000 0.384414 0.967567
O O5 0.842115 0.750000 0.538281
O O6 0.902152 0.888555 0.497300
O O7 0.820982 0.895803 0.374519
O O8 0.822649 0.923537 0.639309
O O9 0.947486 0.250000 0.602957
O O10 0.000000 0.394293 0.554172
O O11 0.250000 0.984377 0.250000
O O12 0.335515 0.981489 0.367449
#
# Coordination Sequence:
#
# PCOD9539602 Si02
#       5
#    16  16  16  16   8
#     4   9  18  33  55  87 123 155 191 234 284 353
#     4  10  21  42  65  86 116 156 198 238 292 352
#     4   8  14  30  58  87 114 147 189 234 279 340
#     4  11  25  42  59  86 120 152 198 257 294 335
#     4  12  21  36  62  86 120 160 193 234 302 358
#
# _framework density 18.986111999999999
#
# number of rings (size 3 to 8) (size 9 to 14) (size 15 to 20)
#    0.000    2.222    2.222    3.000    0.000    1.778 
#    0.000    6.667    0.000    2.667    0.000    0.000 
#    0.000    0.000    0.000    0.000    0.000    0.000 
#
# Total GULP energy -200884.979670 kJ/mol
# GULP energy per Si atom -5580.138324 kJ/mol
# Density = 1.894290 g / cm^3
# Si number density = 18.986112 Si / 1000 Ang^3
#
#
#
# Elastic Constant Matrix: (Units=GPa)
#
#
# Indices 1 2 3 4 5 6 
#
# 1 148.2155 10.3543 5.6330 0.0000 0.0000 0.0000
# 2 10.3543 65.5552 -10.3926 0.0000 0.0000 0.0000
# 3 5.6330 -10.3926 17.2917 0.0000 0.0000 0.0000
# 4 0.0000 0.0000 0.0000 22.9669 0.0000 0.0000
# 5 0.0000 0.0000 0.0000 0.0000 32.2464 0.0000
# 6 0.0000 0.0000 0.0000 0.0000 0.0000 23.8949
#
#
#
# Elastic Compliance Matrix: (Units=1/GPa)
#
#
# Indices 1 2 3 4 5 6 
#
# 1 0.006983 -0.001618 -0.003247 0.000000 0.000000 0.000000
# 2 -0.001618 0.017236 0.010886 0.000000 0.000000 0.000000
# 3 -0.003247 0.010886 0.065432 0.000000 0.000000 0.000000
# 4 0.000000 0.000000 0.000000 0.043541 0.000000 0.000000
# 5 0.000000 0.000000 0.000000 0.000000 0.031011 0.000000
# 6 0.000000 0.000000 0.000000 0.000000 0.000000 0.041850
#
#
# Mechanical properties :
#
#
# Convention : Reuss Voigt Hill
#
# Bulk Modulus (GPa) = 9.83358 26.91685 18.37521
# Shear Modulus (GPa) = 21.93862 30.85280 26.39571
#
# Velocity S-wave (km/s) = 3.40297 4.03553 3.73267
# Velocity P-wave (km/s) = 4.54212 5.99349 5.31755
#
# Compressibility (1/GPa) = 0.10169240
#
# Stress axis : x y z
#
# Youngs Moduli (GPa) = 143.19747 58.01939 15.28312
#
# Poissons Ratio (x) = 0.09386 0.04963
# Poissons Ratio (y) = 0.23166 -0.16637
# Poissons Ratio (z) = 0.46499 -0.63159
#
# Static dielectric constant tensor:
#      x y z
#    x 1.659730 0.000000 0.000000 
#    y 0.000000 1.657690 0.000000 
#    z 0.000000 0.000000 1.646740 
# 
# From -- ./inp_files/14715.got.cif
#   From: 2010.05.17/outbox.cif.g08.bks.cpg/sg74_8_cif.got.tgz:14715.got - 2010.06.03 17:57:02.
