data_PCOD9539011
_publ_section_title
;
Structure prediction by ZEFSAII (Michael W. Deem and Ramdas Pophale) SiO2 
 PCOD9539011
Probable space group: I M M A
;
_chemical_formula_sum "Si O2"
_cell_formula_units_Z 56
_cell_length_a 9.710858
_cell_length_b 22.676129
_cell_length_c 14.619833
_cell_angle_alpha 90.000000
_cell_angle_beta 90.000000
_cell_angle_gamma 90.000000
_cell_volume 3219.355482
_symmetry_space_group_name_H-M "I M M A"
_symmetry_group_IT_number 74
_symmetry_cell_setting 'orthorhombic'
loop_
_space_group_symop_operation_xyz
x,y,z
-x,1/2-y,z
x,-y,-z
-x,1/2+y,-z
-x,-y,-z
x,1/2+y,-z
-x,y,z
x,1/2-y,z
1/2+x,1/2+y,1/2+z
1/2-x,-y,1/2+z
1/2+x,1/2-y,1/2-z
1/2-x,y,1/2-z
1/2-x,1/2-y,1/2-z
1/2+x,y,1/2-z
1/2-x,1/2+y,1/2+z
1/2+x,-y,1/2+z
loop_
_atom_site_type_symbol
_atom_site_label
_atom_site_fract_x
_atom_site_fract_y
_atom_site_fract_z
Si Si1 0.342221 0.888881 0.672122
Si Si2 0.500000 0.181798 0.465189
Si Si3 0.836660 0.000054 0.390410
Si Si4 0.500000 0.180386 0.683177
Si Si5 0.750000 0.601028 0.250000
O O1 0.500000 0.901334 0.703841
O O2 0.250000 0.858615 0.750000
O O3 0.369516 0.849918 0.582197
O O4 0.258992 0.947532 0.647230
O O5 0.500000 0.250000 0.439684
O O6 0.500000 0.176306 0.573232
O O7 0.792551 0.941578 0.334666
O O8 0.000000 0.009500 0.374694
O O9 0.815760 0.000000 0.500000
O O10 0.500000 0.250000 0.707669
O O11 0.371401 0.144243 0.720765
#
# Coordination Sequence:
#
# PCOD9539011 Si02
#       5
#    16   8  16   8   8
#     4  10  21  36  58  87 121 155 196 252 298 360
#     4   9  22  41  63  87 116 163 210 249 303 359
#     4  11  23  38  59  92 125 156 199 252 309 366
#     4  11  24  43  64  87 119 159 209 255 293 359
#     4  12  23  40  62  94 117 164 198 242 314 360
#
# _framework density 17.394786
#
# number of rings (size 3 to 8) (size 9 to 14) (size 15 to 20)
#    0.857    0.571    2.857    3.000    2.000    1.143 
#    0.000    0.000    0.000    0.000    0.000    0.000 
#    0.000    0.000    0.000    0.000    0.000    0.000 
#
# Total GULP energy -156010.440139 kJ/mol
# GULP energy per Si atom -5571.801434 kJ/mol
# Density = 1.735519 g / cm^3
# Si number density = 17.394786 Si / 1000 Ang^3
#
#
#
# Elastic Constant Matrix: (Units=GPa)
#
#
# Indices 1 2 3 4 5 6 
#
# 1 145.8583 65.4136 53.2455 0.0000 0.0000 0.0000
# 2 65.4136 142.2904 67.2532 0.0000 0.0000 0.0000
# 3 53.2455 67.2532 105.4866 0.0000 -0.0001 0.0000
# 4 0.0000 0.0000 0.0000 32.3491 0.0000 0.0000
# 5 0.0000 0.0000 -0.0001 0.0000 -113.7517 0.0000
# 6 0.0000 0.0000 0.0000 0.0000 0.0000 43.5374
#
#
#
# Elastic Compliance Matrix: (Units=1/GPa)
#
#
# Indices 1 2 3 4 5 6 
#
# 1 0.009172 -0.002903 -0.002779 0.000000 0.000000 0.000000
# 2 -0.002903 0.010978 -0.005534 0.000000 0.000000 0.000000
# 3 -0.002779 -0.005534 0.014410 0.000000 0.000000 0.000000
# 4 0.000000 0.000000 0.000000 0.030913 0.000000 0.000000
# 5 0.000000 0.000000 0.000000 0.000000 -0.008791 0.000000
# 6 0.000000 0.000000 0.000000 0.000000 0.000000 0.022969
#
#
# Mechanical properties :
#
#
# Convention : Reuss Voigt Hill
#
# Bulk Modulus (GPa) = 82.44420 85.05109 83.74764
# Shear Modulus (GPa) = 47.11377 6.27518 26.69448
#
# Velocity S-wave (km/s) = 5.20997 1.90140 3.92168
# Velocity P-wave (km/s) = 9.14825 7.33629 8.29192
#
# Compressibility (1/GPa) = 0.01212942
#
# Stress axis : x y z
#
# Youngs Moduli (GPa) = 109.02200 91.09110 69.39388
#
# Poissons Ratio (x) = 0.26447 0.19284
# Poissons Ratio (y) = 0.31653 0.38400
# Poissons Ratio (z) = 0.30296 0.50406
#
# Static dielectric constant tensor:
#      x y z
#    x 1.504040 0.000000 0.000000 
#    y 0.000000 1.568200 0.000000 
#    z 0.000000 0.000000 1.629020 
# 
# From -- ./inp_files/28744.got.cif
#   From: 2010.05.17/outbox.cif.g08.bks.cpg/sg74_15_cif.got.tgz:28744.got - 2010.06.03 17:57:02.
