data_PCOD9539420
_publ_section_title
;
Structure prediction by ZEFSAII (Michael W. Deem and Ramdas Pophale) SiO2 
 PCOD9539420
Probable space group: I M M A
;
_chemical_formula_sum "Si O2"
_cell_formula_units_Z 116
_cell_length_a 15.079457
_cell_length_b 19.279023
_cell_length_c 17.471829
_cell_angle_alpha 90.000000
_cell_angle_beta 90.000000
_cell_angle_gamma 90.000000
_cell_volume 5079.361177
_symmetry_space_group_name_H-M "I M M A"
_symmetry_group_IT_number 74
_symmetry_cell_setting 'orthorhombic'
loop_
_space_group_symop_operation_xyz
x,y,z
-x,1/2-y,z
x,-y,-z
-x,1/2+y,-z
-x,-y,-z
x,1/2+y,-z
-x,y,z
x,1/2-y,z
1/2+x,1/2+y,1/2+z
1/2-x,-y,1/2+z
1/2+x,1/2-y,1/2-z
1/2-x,y,1/2-z
1/2-x,1/2-y,1/2-z
1/2+x,y,1/2-z
1/2-x,1/2+y,1/2+z
1/2+x,-y,1/2+z
loop_
_atom_site_type_symbol
_atom_site_label
_atom_site_fract_x
_atom_site_fract_y
_atom_site_fract_z
Si Si1 0.396970 0.323573 0.129752
Si Si2 0.855017 0.948222 0.234214
Si Si3 0.146932 0.398647 0.226755
Si Si4 0.894787 0.922861 0.505941
Si Si5 0.606498 0.167452 0.434576
Si Si6 0.000000 0.250000 0.866816
Si Si7 0.856362 0.831449 0.356244
Si Si8 0.844318 0.141484 0.897355
O O1 0.500000 0.318830 0.106807
O O2 0.353039 0.250000 0.113713
O O3 0.395125 0.341593 0.218130
O O4 0.355920 0.384092 0.079458
O O5 0.750000 0.952694 0.250000
O O6 0.885469 0.883331 0.287249
O O7 0.864046 0.930422 0.145048
O O8 0.891110 0.025211 0.247829
O O9 0.250000 0.398403 0.250000
O O10 0.132230 0.375901 0.140014
O O11 0.885305 0.871984 0.433299
O O12 0.000000 0.932453 0.518180
O O13 0.855660 0.000000 0.500000
O O14 0.500000 0.161663 0.447555
O O15 0.624607 0.250000 0.424979
O O16 0.655531 0.141713 0.511175
O O17 0.077416 0.308784 0.872158
O O18 0.884960 0.750000 0.349903
O O19 0.749418 0.832490 0.363231
#
# Coordination Sequence:
#
# PCOD9539420 Si02
#       8
#    16  16  16  16  16   4  16  16
#     4  10  21  39  60  82 119 163 202 252 320 378
#     4   9  23  43  62  88 129 168 207 259 327 386
#     4  11  24  41  60  90 124 164 214 267 317 383
#     4  10  22  41  64  92 129 167 210 267 331 393
#     4  11  22  41  65  92 129 168 215 271 329 391
#     4  12  20  44  66  98 136 168 218 268 334 392
#     4  11  22  39  69  98 128 169 220 269 324 389
#     4  11  22  42  67  94 130 173 213 264 332 394
#
# _framework density 22.837519
#
# number of rings (size 3 to 8) (size 9 to 14) (size 15 to 20)
#    0.000    1.517    2.069    2.069    2.897    4.414 
#    3.724    0.690    0.000    0.000    0.000    0.000 
#    0.000    0.000    0.000    0.000    0.000    0.000 
#
# Total GULP energy -323404.609970 kJ/mol
# GULP energy per Si atom -5575.941551 kJ/mol
# Density = 2.278554 g / cm^3
# Si number density = 22.837519 Si / 1000 Ang^3
#
#
#
# Elastic Constant Matrix: (Units=GPa)
#
#
# Indices 1 2 3 4 5 6 
#
# 1 56.4937 9.9616 5.0299 0.0000 0.0000 0.0000
# 2 9.9616 152.2848 61.2398 0.0000 0.0000 0.0000
# 3 5.0299 61.2398 125.1081 0.0000 0.0000 0.0000
# 4 0.0000 0.0000 0.0000 28.4035 0.0000 0.0000
# 5 0.0000 0.0000 0.0000 0.0000 7.3105 0.0000
# 6 0.0000 0.0000 0.0000 0.0000 0.0000 31.1150
#
#
#
# Elastic Compliance Matrix: (Units=1/GPa)
#
#
# Indices 1 2 3 4 5 6 
#
# 1 0.017911 -0.001098 -0.000183 0.000000 0.000000 0.000000
# 2 -0.001098 0.008243 -0.003991 0.000000 0.000000 0.000000
# 3 -0.000183 -0.003991 0.009954 0.000000 0.000000 0.000000
# 4 0.000000 0.000000 0.000000 0.035207 0.000000 0.000000
# 5 0.000000 0.000000 0.000000 0.000000 0.136789 0.000000
# 6 0.000000 0.000000 0.000000 0.000000 0.000000 0.032139
#
#
# Mechanical properties :
#
#
# Convention : Reuss Voigt Hill
#
# Bulk Modulus (GPa) = 39.11607 54.03882 46.57745
# Shear Modulus (GPa) = 19.28208 30.54284 24.91246
#
# Velocity S-wave (km/s) = 2.90886 3.66101 3.30640
# Velocity P-wave (km/s) = 5.33359 6.44859 5.91741
#
# Compressibility (1/GPa) = 0.02556494
#
# Stress axis : x y z
#
# Youngs Moduli (GPa) = 55.83167 121.30914 100.46240
#
# Poissons Ratio (x) = 0.13323 0.01834
# Poissons Ratio (y) = 0.06132 0.40094
# Poissons Ratio (z) = 0.01019 0.48414
#
# Static dielectric constant tensor:
#      x y z
#    x 1.940670 0.000000 0.000000 
#    y 0.000000 1.877010 0.000000 
#    z 0.000000 0.000000 1.850980 
# 
# From -- ./inp_files/44243.got.cif
#   From: 2010.05.17/outbox.cif.g08.bks.cpg/sg74_23_cif.got.tgz:44243.got - 2010.06.03 17:57:02.
