data_PCOD9539985
_publ_section_title
;
Structure prediction by ZEFSAII (Michael W. Deem and Ramdas Pophale) SiO2 
 PCOD9539985
Probable space group: I M M A
;
_chemical_formula_sum "Si O2"
_cell_formula_units_Z 60
_cell_length_a 22.289527
_cell_length_b 14.421868
_cell_length_c 8.644507
_cell_angle_alpha 90.000000
_cell_angle_beta 90.000000
_cell_angle_gamma 90.000000
_cell_volume 2778.833969
_symmetry_space_group_name_H-M "I M M A"
_symmetry_group_IT_number 74
_symmetry_cell_setting 'orthorhombic'
loop_
_space_group_symop_operation_xyz
x,y,z
-x,1/2-y,z
x,-y,-z
-x,1/2+y,-z
-x,-y,-z
x,1/2+y,-z
-x,y,z
x,1/2-y,z
1/2+x,1/2+y,1/2+z
1/2-x,-y,1/2+z
1/2+x,1/2-y,1/2-z
1/2-x,y,1/2-z
1/2-x,1/2-y,1/2-z
1/2+x,y,1/2-z
1/2-x,1/2+y,1/2+z
1/2+x,-y,1/2+z
loop_
_atom_site_type_symbol
_atom_site_label
_atom_site_fract_x
_atom_site_fract_y
_atom_site_fract_z
Si Si1 0.872853 0.250000 0.052266
Si Si2 0.691712 0.058865 0.355026
Si Si3 0.181126 0.250000 0.710889
Si Si4 0.000000 0.250000 0.238349
Si Si5 0.000000 0.890166 0.472184
Si Si6 0.876074 0.073024 0.636743
O O1 0.839506 0.156521 0.108627
O O2 0.940087 0.250000 0.129485
O O3 0.861173 0.250000 0.865296
O O4 0.750000 0.072914 0.250000
O O5 0.714285 0.000000 0.500000
O O6 0.641895 0.988957 0.282548
O O7 0.250000 0.250000 0.750000
O O8 0.169523 0.343338 0.617954
O O9 0.000000 0.164410 0.364058
O O10 0.940228 0.876061 0.373106
O O11 0.000000 0.000000 0.500000
O O12 0.873078 0.000000 0.500000
#
# Coordination Sequence:
#
# PCOD9539985 Si02
#       6
#     8  16   8   4   8  16
#     4  12  27  47  71 106 148 192 242 301 363 430
#     4  12  26  46  70 108 147 193 246 303 366 438
#     4  12  27  46  68 106 144 186 244 303 360 430
#     4  12  26  48  72 108 150 190 254 290 362 450
#     4  10  22  45  72 104 137 181 241 295 350 433
#     4  11  24  44  76 103 139 188 237 300 368 426
#
# _framework density 21.591791000000001
#
# number of rings (size 3 to 8) (size 9 to 14) (size 15 to 20)
#    0.000    0.533    2.667    6.000    3.733    2.133 
#    0.000    1.333    0.000    0.000    0.000    0.000 
#    0.000    0.000    0.000    0.000    0.000    0.000 
#
# Total GULP energy -167525.289990 kJ/mol
# GULP energy per Si atom -5584.176333 kJ/mol
# Density = 2.154265 g / cm^3
# Si number density = 21.591791 Si / 1000 Ang^3
#
#
#
# Elastic Constant Matrix: (Units=GPa)
#
#
# Indices 1 2 3 4 5 6 
#
# 1 158.0552 54.4579 40.8342 0.0000 0.0000 0.0000
# 2 54.4579 165.8340 31.2368 0.0000 0.0000 0.0000
# 3 40.8342 31.2368 75.1617 0.0000 0.0000 0.0000
# 4 0.0000 0.0000 0.0000 43.9858 0.0000 0.0000
# 5 0.0000 0.0000 0.0000 0.0000 43.4853 0.0000
# 6 0.0000 0.0000 0.0000 0.0000 0.0000 34.4561
#
#
#
# Elastic Compliance Matrix: (Units=1/GPa)
#
#
# Indices 1 2 3 4 5 6 
#
# 1 0.007894 -0.001936 -0.003484 0.000000 0.000000 0.000000
# 2 -0.001936 0.007017 -0.001864 0.000000 0.000000 0.000000
# 3 -0.003484 -0.001864 0.015972 0.000000 0.000000 0.000000
# 4 0.000000 0.000000 0.000000 0.022735 0.000000 0.000000
# 5 0.000000 0.000000 0.000000 0.000000 0.022996 0.000000
# 6 0.000000 0.000000 0.000000 0.000000 0.000000 0.029022
#
#
# Mechanical properties :
#
#
# Convention : Reuss Voigt Hill
#
# Bulk Modulus (GPa) = 61.29584 72.45653 66.87619
# Shear Modulus (GPa) = 39.79490 42.55359 41.17424
#
# Velocity S-wave (km/s) = 4.29774 4.44421 4.37159
# Velocity P-wave (km/s) = 7.28544 7.74371 7.51806
#
# Compressibility (1/GPa) = 0.01631432
#
# Stress axis : x y z
#
# Youngs Moduli (GPa) = 126.67672 142.50922 62.60812
#
# Poissons Ratio (x) = 0.27591 0.21814
# Poissons Ratio (y) = 0.24525 0.11673
# Poissons Ratio (z) = 0.44136 0.26570
#
# Static dielectric constant tensor:
#      x y z
#    x 1.381540 0.000000 0.000000 
#    y 0.000000 1.762090 0.000000 
#    z 0.000000 0.000000 1.764990 
# 
# From -- ./inp_files/13259.got.cif
#   From: 2010.05.17/outbox.cif.g08.bks.cpg/sg74_7_cif.got.tgz:13259.got - 2010.06.03 17:57:02.
