data_PCOD9539276
_publ_section_title
;
Structure prediction by ZEFSAII (Michael W. Deem and Ramdas Pophale) SiO2 
 PCOD9539276
Probable space group: I M M A
;
_chemical_formula_sum "Si O2"
_cell_formula_units_Z 80
_cell_length_a 8.098030
_cell_length_b 16.318807
_cell_length_c 29.154503
_cell_angle_alpha 90.000000
_cell_angle_beta 90.000000
_cell_angle_gamma 90.000000
_cell_volume 3852.773071
_symmetry_space_group_name_H-M "I M M A"
_symmetry_group_IT_number 74
_symmetry_cell_setting 'orthorhombic'
loop_
_space_group_symop_operation_xyz
x,y,z
-x,1/2-y,z
x,-y,-z
-x,1/2+y,-z
-x,-y,-z
x,1/2+y,-z
-x,y,z
x,1/2-y,z
1/2+x,1/2+y,1/2+z
1/2-x,-y,1/2+z
1/2+x,1/2-y,1/2-z
1/2-x,y,1/2-z
1/2-x,1/2-y,1/2-z
1/2+x,y,1/2-z
1/2-x,1/2+y,1/2+z
1/2+x,-y,1/2+z
loop_
_atom_site_type_symbol
_atom_site_label
_atom_site_fract_x
_atom_site_fract_y
_atom_site_fract_z
Si Si1 0.195355 0.158074 0.700921
Si Si2 0.298910 0.435743 0.459529
Si Si3 0.809933 0.587680 0.698688
Si Si4 0.309565 0.750000 0.543542
Si Si5 0.186126 0.965145 0.129020
Si Si6 0.307561 0.750000 0.653543
O O1 0.267985 0.250000 0.700070
O O2 0.250000 0.119065 0.750000
O O3 0.235114 0.113780 0.652951
O O4 0.000000 0.162366 0.704008
O O5 0.263387 0.500000 0.500000
O O6 0.500000 0.427935 0.455160
O O7 0.239245 0.341560 0.467962
O O8 0.239585 0.481623 0.412950
O O9 0.750000 0.598636 0.750000
O O10 0.692503 0.526027 0.671999
O O11 0.787309 0.672204 0.672362
O O12 0.000000 0.559076 0.696843
O O13 0.500000 0.750000 0.526319
O O14 0.311418 0.750000 0.598767
O O15 0.000000 0.943968 0.115194
O O16 0.500000 0.750000 0.669287
#
# Coordination Sequence:
#
# PCOD9539276 Si02
#       6
#    16  16  16   8  16   8
#     4  10  21  38  59  83 115 156 198 242 293 352
#     4   9  18  34  57  87 117 149 193 245 299 352
#     4  12  24  37  54  81 116 156 197 237 282 342
#     4   9  16  32  58  83 115 154 189 237 296 347
#     4  11  21  36  58  85 117 150 191 244 293 348
#     4  11  20  36  57  81 114 156 196 237 285 333
#
# _framework density 20.764265000000002
#
# number of rings (size 3 to 8) (size 9 to 14) (size 15 to 20)
#    0.000    1.600    2.000    4.200    0.000    1.200 
#    1.800    0.000    0.000    2.400    0.000    0.000 
#    0.000    0.000    0.000    0.000    0.000    0.000 
#
# Total GULP energy -222923.570407 kJ/mol
# GULP energy per Si atom -5573.089260 kJ/mol
# Density = 2.071700 g / cm^3
# Si number density = 20.764265 Si / 1000 Ang^3
#
#
#
# Elastic Constant Matrix: (Units=GPa)
#
#
# Indices 1 2 3 4 5 6 
#
# 1 43.2878 0.2257 14.7479 0.0000 0.0000 0.0000
# 2 0.2257 129.2790 49.9757 0.0000 0.0000 0.0000
# 3 14.7479 49.9757 49.4476 0.0000 0.0000 0.0000
# 4 0.0000 0.0000 0.0000 27.1947 0.0000 0.0000
# 5 0.0000 0.0000 0.0000 0.0000 16.1471 0.0000
# 6 0.0000 0.0000 0.0000 0.0000 0.0000 16.8671
#
#
#
# Elastic Compliance Matrix: (Units=1/GPa)
#
#
# Indices 1 2 3 4 5 6 
#
# 1 0.027660 0.005155 -0.013460 0.000000 0.000000 0.000000
# 2 0.005155 0.013656 -0.015339 0.000000 0.000000 0.000000
# 3 -0.013460 -0.015339 0.039741 0.000000 0.000000 0.000000
# 4 0.000000 0.000000 0.000000 0.036772 0.000000 0.000000
# 5 0.000000 0.000000 0.000000 0.000000 0.061931 0.000000
# 6 0.000000 0.000000 0.000000 0.000000 0.000000 0.059287
#
#
# Mechanical properties :
#
#
# Convention : Reuss Voigt Hill
#
# Bulk Modulus (GPa) = 29.61316 39.10145 34.35731
# Shear Modulus (GPa) = 16.80162 22.51278 19.65720
#
# Velocity S-wave (km/s) = 2.84766 3.29630 3.08016
# Velocity P-wave (km/s) = 5.01047 5.77577 5.40668
#
# Compressibility (1/GPa) = 0.03376877
#
# Stress axis : x y z
#
# Youngs Moduli (GPa) = 36.15342 73.22817 25.16301
#
# Poissons Ratio (x) = -0.37748 0.33868
# Poissons Ratio (y) = -0.18636 0.38598
# Poissons Ratio (z) = 0.48661 1.12326
#
# Static dielectric constant tensor:
#      x y z
#    x 1.765970 0.000000 0.000000 
#    y 0.000000 1.772270 0.000000 
#    z 0.000000 0.000000 1.715080 
# 
# From -- ./inp_files/64024.got.cif
#   From: 2010.05.17/outbox.cif.g08.bks.cpg/sg74_33_cif.got.tgz:64024.got - 2010.06.03 17:57:02.
