data_PCOD9539054
_publ_section_title
;
Structure prediction by ZEFSAII (Michael W. Deem and Ramdas Pophale) SiO2 
 PCOD9539054
Probable space group: I M M A
;
_chemical_formula_sum "Si O2"
_cell_formula_units_Z 96
_cell_length_a 24.144206
_cell_length_b 7.631381
_cell_length_c 22.692162
_cell_angle_alpha 90.000000
_cell_angle_beta 90.000000
_cell_angle_gamma 90.000000
_cell_volume 4181.113333
_symmetry_space_group_name_H-M "I M M A"
_symmetry_group_IT_number 74
_symmetry_cell_setting 'orthorhombic'
loop_
_space_group_symop_operation_xyz
x,y,z
-x,1/2-y,z
x,-y,-z
-x,1/2+y,-z
-x,-y,-z
x,1/2+y,-z
-x,y,z
x,1/2-y,z
1/2+x,1/2+y,1/2+z
1/2-x,-y,1/2+z
1/2+x,1/2-y,1/2-z
1/2-x,y,1/2-z
1/2-x,1/2-y,1/2-z
1/2+x,y,1/2-z
1/2-x,1/2+y,1/2+z
1/2+x,-y,1/2+z
loop_
_atom_site_type_symbol
_atom_site_label
_atom_site_fract_x
_atom_site_fract_y
_atom_site_fract_z
Si Si1 0.262230 0.040244 0.435725
Si Si2 0.000000 0.043756 0.902759
Si Si3 0.500000 0.960763 0.267666
Si Si4 0.379555 0.044977 0.265810
Si Si5 0.165719 0.034200 0.352513
Si Si6 0.938089 0.960310 0.569023
Si Si7 0.880394 0.539971 0.899769
O O1 0.264579 0.250000 0.430104
O O2 0.221387 0.976124 0.384990
O O3 0.325036 0.971808 0.430585
O O4 0.238943 0.000000 0.500000
O O5 0.000000 0.250000 0.897961
O O6 0.000000 0.970762 0.835633
O O7 0.940217 0.996257 0.928140
O O8 0.500000 0.750000 0.267015
O O9 0.442425 0.026820 0.241922
O O10 0.366501 0.250000 0.272329
O O11 0.340455 0.973567 0.214789
O O12 0.379148 0.970286 0.331994
O O13 0.165496 0.250000 0.351924
O O14 0.112395 0.976711 0.390612
O O15 0.939315 0.750000 0.575074
O O16 0.000000 0.027068 0.584391
O O17 0.928347 0.000000 0.500000
O O18 0.877164 0.750000 0.897444
#
# Coordination Sequence:
#
# PCOD9539054 Si02
#       7
#    16   8   8  16  16  16  16
#     4  10  21  37  55  76 103 136 175 217 259 306
#     4   9  17  31  54  80 107 136 165 200 251 309
#     4   9  17  29  45  72 109 140 167 204 248 303
#     4   9  17  30  51  76 102 137 172 208 257 310
#     4   9  18  31  50  75 100 132 174 216 254 300
#     4   9  17  29  45  65  92 127 169 213 252 290
#     4   9  18  33  54  80 108 135 168 210 255 308
#
# _framework density 22.96039
#
# number of rings (size 3 to 8) (size 9 to 14) (size 15 to 20)
#    0.000    2.833    0.000    1.000    1.167    3.333 
#    0.000    5.417    0.000    0.000    0.000    5.833 
#    0.000    0.000    0.000    0.000    0.000    0.000 
#
# Total GULP energy -267872.486079 kJ/mol
# GULP energy per Si atom -5580.676793 kJ/mol
# Density = 2.290813 g / cm^3
# Si number density = 22.960390 Si / 1000 Ang^3
#
#
#
# Elastic Constant Matrix: (Units=GPa)
#
#
# Indices 1 2 3 4 5 6 
#
# 1 94.3441 3.4418 37.7136 0.0000 0.0000 0.0000
# 2 3.4418 48.5695 -2.5778 0.0000 0.0000 0.0000
# 3 37.7136 -2.5778 81.6567 0.0000 0.0000 0.0000
# 4 0.0000 0.0000 0.0000 8.8287 0.0000 0.0000
# 5 0.0000 0.0000 0.0000 0.0000 21.7623 0.0000
# 6 0.0000 0.0000 0.0000 0.0000 0.0000 -28.7522
#
#
#
# Elastic Compliance Matrix: (Units=1/GPa)
#
#
# Indices 1 2 3 4 5 6 
#
# 1 0.013075 -0.001249 -0.006078 0.000000 0.000000 0.000000
# 2 -0.001249 0.020743 0.001232 0.000000 0.000000 0.000000
# 3 -0.006078 0.001232 0.015092 0.000000 0.000000 0.000000
# 4 0.000000 0.000000 0.000000 0.113267 0.000000 0.000000
# 5 0.000000 0.000000 0.000000 0.000000 0.045951 0.000000
# 6 0.000000 0.000000 0.000000 0.000000 0.000000 -0.034780
#
#
# Mechanical properties :
#
#
# Convention : Reuss Voigt Hill
#
# Bulk Modulus (GPa) = 27.23366 33.52505 30.37935
# Shear Modulus (GPa) = 25.28073 12.76729 19.02401
#
# Velocity S-wave (km/s) = 3.32182 2.36064 2.88159
# Velocity P-wave (km/s) = 5.15747 4.69714 4.93268
#
# Compressibility (1/GPa) = 0.03671927
#
# Stress axis : x y z
#
# Youngs Moduli (GPa) = 76.48333 48.20918 66.25824
#
# Poissons Ratio (x) = 0.06022 0.40272
# Poissons Ratio (y) = 0.09554 -0.08161
# Poissons Ratio (z) = 0.46487 -0.05938
#
# Static dielectric constant tensor:
#      x y z
#    x 1.906740 0.000000 0.000000 
#    y 0.000000 1.854300 0.000000 
#    z 0.000000 0.000000 1.855660 
# 
# From -- ./inp_files/61935.got.cif
#   From: 2010.05.17/outbox.cif.g08.bks.cpg/sg74_31_cif.got.tgz:61935.got - 2010.06.03 17:57:02.
