data_PCOD9539140
_publ_section_title
;
Structure prediction by ZEFSAII (Michael W. Deem and Ramdas Pophale) SiO2 
 PCOD9539140
Probable space group: I M M A
;
_chemical_formula_sum "Si O2"
_cell_formula_units_Z 96
_cell_length_a 13.510739
_cell_length_b 14.115184
_cell_length_c 21.573655
_cell_angle_alpha 90.000000
_cell_angle_beta 90.000000
_cell_angle_gamma 90.000000
_cell_volume 4114.237682
_symmetry_space_group_name_H-M "I M M A"
_symmetry_group_IT_number 74
_symmetry_cell_setting 'orthorhombic'
loop_
_space_group_symop_operation_xyz
x,y,z
-x,1/2-y,z
x,-y,-z
-x,1/2+y,-z
-x,-y,-z
x,1/2+y,-z
-x,y,z
x,1/2-y,z
1/2+x,1/2+y,1/2+z
1/2-x,-y,1/2+z
1/2+x,1/2-y,1/2-z
1/2-x,y,1/2-z
1/2-x,1/2-y,1/2-z
1/2+x,y,1/2-z
1/2-x,1/2+y,1/2+z
1/2+x,-y,1/2+z
loop_
_atom_site_type_symbol
_atom_site_label
_atom_site_fract_x
_atom_site_fract_y
_atom_site_fract_z
Si Si1 0.618507 0.146167 0.836066
Si Si2 0.111783 0.864102 0.478504
Si Si3 0.887947 0.054462 0.289540
Si Si4 0.316987 0.947054 0.656911
Si Si5 0.383876 0.139202 0.607883
Si Si6 0.685781 0.636852 0.530220
O O1 0.500000 0.155903 0.839738
O O2 0.658035 0.250000 0.819050
O O3 0.643494 0.119267 0.907219
O O4 0.631648 0.058781 0.790789
O O5 0.108759 0.750000 0.483817
O O6 0.200290 0.897517 0.521997
O O7 0.000000 0.897875 0.490122
O O8 0.795941 0.088268 0.331151
O O9 0.874392 0.084405 0.218548
O O10 0.000000 0.073431 0.311601
O O11 0.356775 0.906365 0.592587
O O12 0.327874 0.060674 0.648287
O O13 0.500000 0.131929 0.622563
O O14 0.354943 0.250000 0.616444
O O15 0.367105 0.116402 0.535000
O O16 0.685768 0.750000 0.536449
#
# Coordination Sequence:
#
# PCOD9539140 Si02
#       6
#    16  16  16  16  16  16
#     4   8  14  27  49  76 107 142 174 209 265 336
#     4   8  14  27  51  84 118 147 177 222 284 350
#     4  10  22  38  54  78 113 150 193 240 282 333
#     4  11  23  38  59  84 112 151 193 236 285 333
#     4  10  22  40  62  89 119 149 183 226 279 341
#     4  10  21  37  58  85 115 148 191 239 285 334
#
# _framework density 23.333606
#
# number of rings (size 3 to 8) (size 9 to 14) (size 15 to 20)
#    0.000    2.500    0.000    3.000    0.000    5.333 
#    0.000    5.000    0.000    6.000    0.000    0.000 
#    0.000    0.000    0.000    0.000    0.000    0.000 
#
# Total GULP energy -267979.915552 kJ/mol
# GULP energy per Si atom -5582.914907 kJ/mol
# Density = 2.328050 g / cm^3
# Si number density = 23.333606 Si / 1000 Ang^3
#
#
#
# Elastic Constant Matrix: (Units=GPa)
#
#
# Indices 1 2 3 4 5 6 
#
# 1 92.8466 -7.0095 0.4642 0.0000 0.0000 0.0000
# 2 -7.0095 27.9532 9.6018 0.0000 0.0000 0.0000
# 3 0.4642 9.6018 67.7729 0.0000 0.0000 0.0000
# 4 0.0000 0.0000 0.0000 8.3258 0.0000 0.0000
# 5 0.0000 0.0000 0.0000 0.0000 -1.0348 0.0000
# 6 0.0000 0.0000 0.0000 0.0000 0.0000 7.9915
#
#
#
# Elastic Compliance Matrix: (Units=1/GPa)
#
#
# Indices 1 2 3 4 5 6 
#
# 1 0.010994 0.002925 -0.000490 0.000000 0.000000 0.000000
# 2 0.002925 0.038382 -0.005458 0.000000 0.000000 0.000000
# 3 -0.000490 -0.005458 0.015532 0.000000 0.000000 0.000000
# 4 0.000000 0.000000 0.000000 0.120109 0.000000 0.000000
# 5 0.000000 0.000000 0.000000 0.000000 -0.966329 0.000000
# 6 0.000000 0.000000 0.000000 0.000000 0.000000 0.125133
#
#
# Mechanical properties :
#
#
# Convention : Reuss Voigt Hill
#
# Bulk Modulus (GPa) = 16.98871 21.63173 19.31022
# Shear Modulus (GPa) = -7.93005 15.42424 3.74709
#
# Velocity S-wave (km/s) = -1.84552 2.57384 1.26861
# Velocity P-wave (km/s) = 1.65993 4.25719 3.23102
#
# Compressibility (1/GPa) = 0.05886262
#
# Stress axis : x y z
#
# Youngs Moduli (GPa) = 90.96100 26.05367 64.38419
#
# Poissons Ratio (x) = -0.07621 0.03153
# Poissons Ratio (y) = -0.26606 0.35140
# Poissons Ratio (z) = 0.04454 0.14220
#
# Static dielectric constant tensor:
#      x y z
#    x 1.921180 0.000000 0.000000 
#    y 0.000000 1.918370 0.000000 
#    z 0.000000 0.000000 1.849070 
# 
# From -- ./inp_files/51880.got.cif
#   From: 2010.05.17/outbox.cif.g08.bks.cpg/sg74_26_cif.got.tgz:51880.got - 2010.06.03 17:57:02.
