data_PCOD9539689
_publ_section_title
;
Structure prediction by ZEFSAII (Michael W. Deem and Ramdas Pophale) SiO2 
 PCOD9539689
Probable space group: I M M A
;
_chemical_formula_sum "Si O2"
_cell_formula_units_Z 80
_cell_length_a 32.350953
_cell_length_b 9.853880
_cell_length_c 17.329357
_cell_angle_alpha 90.000000
_cell_angle_beta 90.000000
_cell_angle_gamma 90.000000
_cell_volume 5524.294167
_symmetry_space_group_name_H-M "I M M A"
_symmetry_group_IT_number 74
_symmetry_cell_setting 'orthorhombic'
loop_
_space_group_symop_operation_xyz
x,y,z
-x,1/2-y,z
x,-y,-z
-x,1/2+y,-z
-x,-y,-z
x,1/2+y,-z
-x,y,z
x,1/2-y,z
1/2+x,1/2+y,1/2+z
1/2-x,-y,1/2+z
1/2+x,1/2-y,1/2-z
1/2-x,y,1/2-z
1/2-x,1/2-y,1/2-z
1/2+x,y,1/2-z
1/2-x,1/2+y,1/2+z
1/2+x,-y,1/2+z
loop_
_atom_site_type_symbol
_atom_site_label
_atom_site_fract_x
_atom_site_fract_y
_atom_site_fract_z
Si Si1 0.366994 0.750000 0.830514
Si Si2 0.738452 0.750000 0.162205
Si Si3 0.347765 0.250000 0.889609
Si Si4 0.000000 0.089335 0.577517
Si Si5 0.271529 0.524526 0.582572
Si Si6 0.295322 0.750000 0.702757
Si Si7 0.204525 0.750000 0.545713
Si Si8 0.090015 0.507409 0.404826
O O1 0.338246 0.750000 0.752570
O O2 0.329918 0.750000 0.890658
O O3 0.395287 0.622210 0.855848
O O4 0.750000 0.750000 0.250000
O O5 0.688980 0.750000 0.169753
O O6 0.755813 0.616259 0.119073
O O7 0.376881 0.378369 0.885960
O O8 0.320590 0.250000 0.967256
O O9 0.043376 0.050819 0.616677
O O10 0.000000 0.250000 0.560123
O O11 0.000000 0.000000 0.500000
O O12 0.294071 0.500000 0.500000
O O13 0.293728 0.617016 0.647402
O O14 0.232749 0.618453 0.557381
O O15 0.250000 0.750000 0.750000
O O16 0.091131 0.500000 0.500000
#
# Coordination Sequence:
#
# PCOD9539689 Si02
#       8
#     8   8   8   8  16   8   8  16
#     4  12  23  34  51  76  97 134 178 219 267 297
#     4  12  25  30  46  74  99 121 170 221 263 283
#     4  12  21  33  50  72  97 132 180 227 249 294
#     4  10  22  38  48  72 104 138 176 217 261 303
#     4  11  21  37  50  65  91 144 173 211 258 312
#     4  11  23  36  51  70 106 132 169 225 273 296
#     4  11  20  32  49  66  98 127 178 219 252 294
#     4  11  22  34  53  72 101 135 178 219 258 301
#
# _framework density 14.481488000000001
#
# number of rings (size 3 to 8) (size 9 to 14) (size 15 to 20)
#    0.000    0.800    7.000    2.400    7.000    0.000 
#    0.000    0.000    0.000    0.000    0.000    0.000 
#    0.000    0.000    0.000    3.600    1.600    0.000 
#
# Total GULP energy -222700.620239 kJ/mol
# GULP energy per Si atom -5567.515506 kJ/mol
# Density = 1.444853 g / cm^3
# Si number density = 14.481488 Si / 1000 Ang^3
#
#
#
# Elastic Constant Matrix: (Units=GPa)
#
#
# Indices 1 2 3 4 5 6 
#
# 1 102.2202 59.0455 55.3207 0.0000 0.0000 0.0000
# 2 59.0455 146.3261 40.1507 0.0000 0.0000 0.0000
# 3 55.3207 40.1507 72.6387 0.0000 0.0000 0.0000
# 4 0.0000 0.0000 0.0000 30.4614 0.0000 0.0000
# 5 0.0000 0.0000 0.0000 0.0000 17.8648 0.0000
# 6 0.0000 0.0000 0.0000 0.0000 0.0000 21.2703
#
#
#
# Elastic Compliance Matrix: (Units=1/GPa)
#
#
# Indices 1 2 3 4 5 6 
#
# 1 0.018671 -0.004282 -0.011853 0.000000 0.000000 0.000000
# 2 -0.004282 0.009038 -0.001735 0.000000 0.000000 0.000000
# 3 -0.011853 -0.001735 0.023752 0.000000 0.000000 0.000000
# 4 0.000000 0.000000 0.000000 0.032828 0.000000 0.000000
# 5 0.000000 0.000000 0.000000 0.000000 0.055976 0.000000
# 6 0.000000 0.000000 0.000000 0.000000 0.000000 0.047014
#
#
# Mechanical properties :
#
#
# Convention : Reuss Voigt Hill
#
# Bulk Modulus (GPa) = 63.60200 70.02431 66.81316
# Shear Modulus (GPa) = 21.90504 25.03049 23.46777
#
# Velocity S-wave (km/s) = 3.89347 4.16197 4.02995
# Velocity P-wave (km/s) = 8.01417 8.45904 8.23961
#
# Compressibility (1/GPa) = 0.01572278
#
# Stress axis : x y z
#
# Youngs Moduli (GPa) = 53.56028 110.64651 42.10105
#
# Poissons Ratio (x) = 0.47375 0.49901
# Poissons Ratio (y) = 0.22933 0.07303
# Poissons Ratio (z) = 0.63483 0.19194
#
# Static dielectric constant tensor:
#      x y z
#    x 1.435780 0.000000 0.000000 
#    y 0.000000 1.548890 0.000000 
#    z 0.000000 0.000000 1.522080 
# 
# From -- ./inp_files/46996.got.cif
#   From: 2010.05.17/outbox.cif.g08.bks.cpg/sg74_24_cif.got.tgz:46996.got - 2010.06.03 17:57:02.
