data_PCOD9539210
_publ_section_title
;
Structure prediction by ZEFSAII (Michael W. Deem and Ramdas Pophale) SiO2 
 PCOD9539210
Probable space group: I M M A
;
_chemical_formula_sum "Si O2"
_cell_formula_units_Z 84
_cell_length_a 7.700573
_cell_length_b 19.136589
_cell_length_c 27.680917
_cell_angle_alpha 90.000000
_cell_angle_beta 90.000000
_cell_angle_gamma 90.000000
_cell_volume 4079.134683
_symmetry_space_group_name_H-M "I M M A"
_symmetry_group_IT_number 74
_symmetry_cell_setting 'orthorhombic'
loop_
_space_group_symop_operation_xyz
x,y,z
-x,1/2-y,z
x,-y,-z
-x,1/2+y,-z
-x,-y,-z
x,1/2+y,-z
-x,y,z
x,1/2-y,z
1/2+x,1/2+y,1/2+z
1/2-x,-y,1/2+z
1/2+x,1/2-y,1/2-z
1/2-x,y,1/2-z
1/2-x,1/2-y,1/2-z
1/2+x,y,1/2-z
1/2-x,1/2+y,1/2+z
1/2+x,-y,1/2+z
loop_
_atom_site_type_symbol
_atom_site_label
_atom_site_fract_x
_atom_site_fract_y
_atom_site_fract_z
Si Si1 0.287638 0.171532 0.972628
Si Si2 0.802403 0.144923 0.182520
Si Si3 0.700481 0.044915 0.908429
Si Si4 0.288574 0.612631 0.922906
Si Si5 0.702205 0.020354 0.696440
Si Si6 0.500000 0.750000 0.788528
O O1 0.500000 0.172944 0.970528
O O2 0.227520 0.250000 0.961856
O O3 0.224487 0.111367 0.936213
O O4 0.242045 0.148983 0.027067
O O5 0.784198 0.150117 0.124454
O O6 0.770167 0.063401 0.194300
O O7 0.652876 0.190203 0.205456
O O8 0.000000 0.164805 0.196122
O O9 0.500000 0.040808 0.924087
O O10 0.773506 0.968259 0.921387
O O11 0.706252 0.051896 0.850517
O O12 0.500000 0.613258 0.918392
O O13 0.500000 0.032526 0.688728
O O14 0.750000 0.045027 0.750000
#
# Coordination Sequence:
#
# PCOD9539210 Si02
#       6
#    16  16  16  16  16   4
#     4   9  17  27  47  79 114 150 189 224 271 338
#     4  10  22  36  54  82 110 146 195 235 276 328
#     4   9  17  31  51  79 109 143 184 232 277 324
#     4   9  16  29  51  76 108 151 194 233 270 319
#     4  10  21  37  61  82 103 132 178 236 280 335
#     4  12  22  36  58  74 116 164 176 238 280 338
#
# _framework density 20.592601999999999
#
# number of rings (size 3 to 8) (size 9 to 14) (size 15 to 20)
#    0.000    2.476    0.952    1.429    4.000    2.286 
#    0.000    1.429    0.000    6.857    0.000    0.000 
#    0.000    0.000    0.000    0.000    0.000    0.000 
#
# Total GULP energy -234129.528070 kJ/mol
# GULP energy per Si atom -5574.512573 kJ/mol
# Density = 2.054573 g / cm^3
# Si number density = 20.592602 Si / 1000 Ang^3
#
#
#
# Elastic Constant Matrix: (Units=GPa)
#
#
# Indices 1 2 3 4 5 6 
#
# 1 78.1222 50.1747 47.8720 0.0000 0.0000 0.0000
# 2 50.1747 72.5190 28.8158 0.0000 0.0000 0.0000
# 3 47.8720 28.8158 67.8195 0.0000 0.0000 0.0000
# 4 0.0000 0.0000 0.0000 -39.1122 0.0000 0.0000
# 5 0.0000 0.0000 0.0000 0.0000 20.8782 0.0000
# 6 0.0000 0.0000 0.0000 0.0000 0.0000 10.7478
#
#
#
# Elastic Compliance Matrix: (Units=1/GPa)
#
#
# Indices 1 2 3 4 5 6 
#
# 1 0.033825 -0.016742 -0.016763 0.000000 0.000000 0.000000
# 2 -0.016742 0.024877 0.001248 0.000000 0.000000 0.000000
# 3 -0.016763 0.001248 0.026047 0.000000 0.000000 0.000000
# 4 0.000000 0.000000 0.000000 -0.025567 0.000000 0.000000
# 5 0.000000 0.000000 0.000000 0.000000 0.047897 0.000000
# 6 0.000000 0.000000 0.000000 0.000000 0.000000 0.093043
#
#
# Mechanical properties :
#
#
# Convention : Reuss Voigt Hill
#
# Bulk Modulus (GPa) = 49.41836 52.46507 50.94171
# Shear Modulus (GPa) = 18.42422 4.60929 11.51676
#
# Velocity S-wave (km/s) = 2.99440 1.49773 2.36745
# Velocity P-wave (km/s) = 6.00045 5.34077 5.68020
#
# Compressibility (1/GPa) = 0.02023540
#
# Stress axis : x y z
#
# Youngs Moduli (GPa) = 29.56362 40.19701 38.39187
#
# Poissons Ratio (x) = 0.67300 0.64355
# Poissons Ratio (y) = 0.49497 -0.04791
# Poissons Ratio (z) = 0.49557 -0.05016
#
# Static dielectric constant tensor:
#      x y z
#    x 1.749270 0.000000 0.000000 
#    y 0.000000 1.727660 0.000000 
#    z 0.000000 0.000000 1.771200 
# 
# From -- ./inp_files/56884.got.cif
#   From: 2010.05.17/outbox.cif.g08.bks.cpg/sg74_29_cif.got.tgz:56884.got - 2010.06.03 17:57:02.
