data_PCOD9539450
_publ_section_title
;
Structure prediction by ZEFSAII (Michael W. Deem and Ramdas Pophale) SiO2 
 PCOD9539450
Probable space group: I M M A
;
_chemical_formula_sum "Si O2"
_cell_formula_units_Z 96
_cell_length_a 20.585923
_cell_length_b 25.804210
_cell_length_c 9.643370
_cell_angle_alpha 90.000000
_cell_angle_beta 90.000000
_cell_angle_gamma 90.000000
_cell_volume 5122.591704
_symmetry_space_group_name_H-M "I M M A"
_symmetry_group_IT_number 74
_symmetry_cell_setting 'orthorhombic'
loop_
_space_group_symop_operation_xyz
x,y,z
-x,1/2-y,z
x,-y,-z
-x,1/2+y,-z
-x,-y,-z
x,1/2+y,-z
-x,y,z
x,1/2-y,z
1/2+x,1/2+y,1/2+z
1/2-x,-y,1/2+z
1/2+x,1/2-y,1/2-z
1/2-x,y,1/2-z
1/2-x,1/2-y,1/2-z
1/2+x,y,1/2-z
1/2-x,1/2+y,1/2+z
1/2+x,-y,1/2+z
loop_
_atom_site_type_symbol
_atom_site_label
_atom_site_fract_x
_atom_site_fract_y
_atom_site_fract_z
Si Si1 0.686962 0.189117 0.411150
Si Si2 0.574505 0.150662 0.609904
Si Si3 0.813467 0.481928 0.340894
Si Si4 0.424330 0.189877 0.921442
Si Si5 0.923849 0.527456 0.147270
Si Si6 0.820495 0.140007 0.386860
O O1 0.700390 0.250000 0.423206
O O2 0.626319 0.173140 0.504088
O O3 0.751164 0.156594 0.450725
O O4 0.672639 0.174152 0.252054
O O5 0.500000 0.159190 0.563308
O O6 0.582465 0.177527 0.759015
O O7 0.583943 0.089090 0.628905
O O8 0.807251 0.500000 0.500000
O O9 0.750000 0.495788 0.250000
O O10 0.875860 0.506418 0.264858
O O11 0.819729 0.419757 0.344130
O O12 0.500000 0.181768 0.957557
O O13 0.407863 0.250000 0.947575
O O14 0.377824 0.153279 0.008842
O O15 0.000000 0.517255 0.179855
O O16 0.909134 0.500000 0.000000
#
# Coordination Sequence:
#
# PCOD9539450 Si02
#       6
#    16  16  16  16  16  16
#     4  11  22  38  61  85 120 162 202 252 302 364
#     4  10  22  40  62  91 123 159 204 252 303 365
#     4  12  25  40  64  92 124 163 208 258 308 372
#     4  10  21  39  62  88 122 159 201 254 306 360
#     4  10  22  41  65  92 127 165 201 252 312 370
#     4  11  23  41  58  88 121 160 202 252 308 362
#
# _framework density 18.740514000000001
#
# number of rings (size 3 to 8) (size 9 to 14) (size 15 to 20)
#    0.000    1.333    1.667    5.000    2.333    3.333 
#    0.000    1.667    0.000    0.000    0.000    0.000 
#    0.000    0.000    0.000    0.000    0.000    0.000 
#
# Total GULP energy -268315.579111 kJ/mol
# GULP energy per Si atom -5589.907898 kJ/mol
# Density = 1.869786 g / cm^3
# Si number density = 18.740514 Si / 1000 Ang^3
#
#
#
# Elastic Constant Matrix: (Units=GPa)
#
#
# Indices 1 2 3 4 5 6 
#
# 1 75.3731 5.2695 50.3225 0.0000 0.0000 0.0000
# 2 5.2695 36.3302 0.4221 0.0000 0.0000 0.0000
# 3 50.3225 0.4221 74.0076 0.0000 0.0000 0.0000
# 4 0.0000 0.0000 0.0000 307.4392 0.0000 0.0000
# 5 0.0000 0.0000 0.0000 0.0000 43.8534 0.0000
# 6 0.0000 0.0000 0.0000 0.0000 0.0000 8.6065
#
#
#
# Elastic Compliance Matrix: (Units=1/GPa)
#
#
# Indices 1 2 3 4 5 6 
#
# 1 0.024708 -0.003389 -0.016781 0.000000 0.000000 0.000000
# 2 -0.003389 0.027992 0.002145 0.000000 0.000000 0.000000
# 3 -0.016781 0.002145 0.024911 0.000000 0.000000 0.000000
# 4 0.000000 0.000000 0.000000 0.003253 0.000000 0.000000
# 5 0.000000 0.000000 0.000000 0.000000 0.022803 0.000000
# 6 0.000000 0.000000 0.000000 0.000000 0.000000 0.116192
#
#
# Mechanical properties :
#
#
# Convention : Reuss Voigt Hill
#
# Bulk Modulus (GPa) = 24.06181 33.08211 28.57196
# Shear Modulus (GPa) = 18.53479 80.62627 49.58053
#
# Velocity S-wave (km/s) = 3.14828 6.56627 5.14915
# Velocity P-wave (km/s) = 5.10715 8.67057 7.11554
#
# Compressibility (1/GPa) = 0.04155963
#
# Stress axis : x y z
#
# Youngs Moduli (GPa) = 40.47229 35.72461 40.14354
#
# Poissons Ratio (x) = 0.12107 0.67366
# Poissons Ratio (y) = 0.13715 -0.08609
# Poissons Ratio (z) = 0.67918 -0.07662
#
# Static dielectric constant tensor:
#      x y z
#    x 1.644110 0.000000 0.000000 
#    y 0.000000 1.633660 0.000000 
#    z 0.000000 0.000000 1.617960 
# 
# From -- ./inp_files/12629.got.cif
#   From: 2010.05.17/outbox.cif.g08.bks.cpg/sg74_7_cif.got.tgz:12629.got - 2010.06.03 17:57:02.
