data_PCOD9539186
_publ_section_title
;
Structure prediction by ZEFSAII (Michael W. Deem and Ramdas Pophale) SiO2 
 PCOD9539186
Probable space group: I M M A
;
_chemical_formula_sum "Si O2"
_cell_formula_units_Z 52
_cell_length_a 8.043139
_cell_length_b 22.483838
_cell_length_c 11.890904
_cell_angle_alpha 90.000000
_cell_angle_beta 90.000000
_cell_angle_gamma 90.000000
_cell_volume 2150.358622
_symmetry_space_group_name_H-M "I M M A"
_symmetry_group_IT_number 74
_symmetry_cell_setting 'orthorhombic'
loop_
_space_group_symop_operation_xyz
x,y,z
-x,1/2-y,z
x,-y,-z
-x,1/2+y,-z
-x,-y,-z
x,1/2+y,-z
-x,y,z
x,1/2-y,z
1/2+x,1/2+y,1/2+z
1/2-x,-y,1/2+z
1/2+x,1/2-y,1/2-z
1/2-x,y,1/2-z
1/2-x,1/2-y,1/2-z
1/2+x,y,1/2-z
1/2-x,1/2+y,1/2+z
1/2+x,-y,1/2+z
loop_
_atom_site_type_symbol
_atom_site_label
_atom_site_fract_x
_atom_site_fract_y
_atom_site_fract_z
Si Si1 0.250000 0.750000 0.750000
Si Si2 0.192276 0.135169 0.399786
Si Si3 0.197610 0.680101 0.126333
Si Si4 0.312301 0.008380 0.373494
O O1 0.249190 0.802760 0.654325
O O2 0.209500 0.142934 0.532705
O O3 0.303331 0.079925 0.364145
O O4 0.000000 0.125113 0.368903
O O5 0.242161 0.750000 0.115292
O O6 0.250000 0.661362 0.250000
O O7 0.000000 0.674644 0.110765
O O8 0.500000 0.985466 0.383513
O O9 0.250000 0.986682 0.250000
O O10 0.232233 0.000000 0.500000
#
# Coordination Sequence:
#
# PCOD9539186 Si02
#       4
#     4  16  16  16
#     4  12  26  40  66 106 146 184 228 284 352 424
#     4  12  25  42  69 101 140 183 228 284 350 421
#     4  10  21  37  59  88 128 173 222 274 335 409
#     4  11  26  48  74 104 139 183 239 300 359 425
#
# _framework density 24.182012
#
# number of rings (size 3 to 8) (size 9 to 14) (size 15 to 20)
#    0.000    0.923    3.077    3.231    0.000    8.615 
#    0.000    3.077    0.000    0.000    0.000    0.000 
#    0.000    0.000    0.000    0.000    0.000    0.000 
#
# Total GULP energy -144803.453491 kJ/mol
# GULP energy per Si atom -5569.363596 kJ/mol
# Density = 2.412697 g / cm^3
# Si number density = 24.182012 Si / 1000 Ang^3
#
#
#
# Elastic Constant Matrix: (Units=GPa)
#
#
# Indices 1 2 3 4 5 6 
#
# 1 26.3525 2.5057 15.4990 0.0000 0.0000 0.0000
# 2 2.5057 71.2188 6.8057 0.0000 0.0000 -0.0001
# 3 15.4990 6.8057 223.5371 0.0002 0.0000 -0.0003
# 4 0.0000 0.0000 0.0002 -51.1089 0.0000 -0.0001
# 5 0.0000 0.0000 0.0000 0.0000 21.3002 0.0000
# 6 0.0000 -0.0001 -0.0003 -0.0001 0.0000 104.4951
#
#
#
# Elastic Compliance Matrix: (Units=1/GPa)
#
#
# Indices 1 2 3 4 5 6 
#
# 1 0.039652 -0.001136 -0.002715 0.000000 0.000000 0.000000
# 2 -0.001136 0.014115 -0.000351 0.000000 0.000000 0.000000
# 3 -0.002715 -0.000351 0.004672 0.000000 0.000000 0.000000
# 4 0.000000 0.000000 0.000000 -0.019566 0.000000 0.000000
# 5 0.000000 0.000000 0.000000 0.000000 0.046948 0.000000
# 6 0.000000 0.000000 0.000000 0.000000 0.000000 0.009570
#
#
# Mechanical properties :
#
#
# Convention : Reuss Voigt Hill
#
# Bulk Modulus (GPa) = 19.98553 41.19212 30.58882
# Shear Modulus (GPa) = 41.50343 34.69047 38.09695
#
# Velocity S-wave (km/s) = 4.14731 3.79166 3.97347
# Velocity P-wave (km/s) = 5.58714 6.01998 5.80759
#
# Compressibility (1/GPa) = 0.05003620
#
# Stress axis : x y z
#
# Youngs Moduli (GPa) = 25.21962 70.84793 214.02095
#
# Poissons Ratio (x) = 0.08046 0.58100
# Poissons Ratio (y) = 0.02864 0.07512
# Poissons Ratio (z) = 0.06846 0.02487
#
# Static dielectric constant tensor:
#      x y z
#    x 1.950460 0.000000 0.000000 
#    y 0.000000 1.887120 0.000000 
#    z 0.000000 0.000000 2.054530 
# 
# From -- ./inp_files/17175.got.cif
#   From: 2010.05.17/outbox.cif.g08.bks.cpg/sg74_9_cif.got.tgz:17175.got - 2010.06.03 17:57:02.
