data_PCOD9539348
_publ_section_title
;
Structure prediction by ZEFSAII (Michael W. Deem and Ramdas Pophale) SiO2 
 PCOD9539348
Probable space group: I M M A
;
_chemical_formula_sum "Si O2"
_cell_formula_units_Z 56
_cell_length_a 16.355221
_cell_length_b 31.903772
_cell_length_c 5.042629
_cell_angle_alpha 90.000000
_cell_angle_beta 90.000000
_cell_angle_gamma 90.000000
_cell_volume 2631.209733
_symmetry_space_group_name_H-M "I M M A"
_symmetry_group_IT_number 74
_symmetry_cell_setting 'orthorhombic'
loop_
_space_group_symop_operation_xyz
x,y,z
-x,1/2-y,z
x,-y,-z
-x,1/2+y,-z
-x,-y,-z
x,1/2+y,-z
-x,y,z
x,1/2-y,z
1/2+x,1/2+y,1/2+z
1/2-x,-y,1/2+z
1/2+x,1/2-y,1/2-z
1/2-x,y,1/2-z
1/2-x,1/2-y,1/2-z
1/2+x,y,1/2-z
1/2-x,1/2+y,1/2+z
1/2+x,-y,1/2+z
loop_
_atom_site_type_symbol
_atom_site_label
_atom_site_fract_x
_atom_site_fract_y
_atom_site_fract_z
Si Si1 0.406825 0.833886 0.859777
Si Si2 0.405674 0.471269 0.757395
Si Si3 0.841899 0.119546 0.840972
Si Si4 0.190369 0.750000 0.504551
O O1 0.500000 0.826145 0.776353
O O2 0.361237 0.858104 0.620086
O O3 0.364585 0.791177 0.957875
O O4 0.402134 0.862805 0.117659
O O5 0.408743 0.500000 0.500000
O O6 0.500000 0.459101 0.826689
O O7 0.355428 0.430248 0.674817
O O8 0.373842 0.500000 0.000000
O O9 0.750000 0.129905 0.750000
O O10 0.250000 0.750000 0.750000
O O11 0.250000 0.750000 0.250000
#
# Coordination Sequence:
#
# PCOD9539348 Si02
#       4
#    16  16  16   8
#     4  12  25  44  68  96 131 175 223 269 329 404
#     4  10  21  38  61  90 126 169 217 270 331 399
#     4  12  25  42  66  97 133 172 219 277 337 396
#     4  12  25  44  69  98 133 168 213 272 333 388
#
# _framework density 21.282988
#
# number of rings (size 3 to 8) (size 9 to 14) (size 15 to 20)
#    0.000    0.571    0.000    9.857    0.000    3.429 
#    0.000    4.286    0.000    0.000    0.000    0.000 
#    0.000    0.000    0.000    0.000    0.000    0.000 
#
# Total GULP energy -156573.737003 kJ/mol
# GULP energy per Si atom -5591.919179 kJ/mol
# Density = 2.123455 g / cm^3
# Si number density = 21.282988 Si / 1000 Ang^3
#
#
#
# Elastic Constant Matrix: (Units=GPa)
#
#
# Indices 1 2 3 4 5 6 
#
# 1 98.8863 42.1787 16.1922 -0.0929 -0.0624 0.2149
# 2 42.1787 155.8137 57.0278 0.0068 -0.0057 0.0155
# 3 16.1922 57.0278 144.9531 -0.3137 0.0017 0.4332
# 4 -0.0929 0.0068 -0.3137 32.4138 -0.1659 0.1271
# 5 -0.0624 -0.0057 0.0017 -0.1659 21.9817 0.0499
# 6 0.2149 0.0155 0.4332 0.1271 0.0499 -46.0640
#
#
#
# Elastic Compliance Matrix: (Units=1/GPa)
#
#
# Indices 1 2 3 4 5 6 
#
# 1 0.011433 -0.003069 -0.000070 0.000033 0.000032 0.000052
# 2 -0.003069 0.008322 -0.002931 -0.000039 -0.000007 -0.000039
# 3 -0.000070 -0.002931 0.008060 0.000078 -0.000001 0.000075
# 4 0.000033 -0.000039 0.000078 0.030853 0.000233 0.000086
# 5 0.000032 -0.000007 -0.000001 0.000233 0.045494 0.000050
# 6 0.000052 -0.000039 0.000075 0.000086 0.000050 -0.021708
#
#
# Mechanical properties :
#
#
# Convention : Reuss Voigt Hill
#
# Bulk Modulus (GPa) = 63.79912 70.05005 66.92458
# Shear Modulus (GPa) = 50.09085 20.61658 35.35371
#
# Velocity S-wave (km/s) = 4.85662 3.11575 4.08011
# Velocity P-wave (km/s) = 7.84160 6.77709 7.32870
#
# Compressibility (1/GPa) = 0.01567420
#
# Stress axis : x y z
#
# Youngs Moduli (GPa) = 87.46444 120.16958 124.07531
#
# Poissons Ratio (x) = 0.36886 0.00864
# Poissons Ratio (y) = 0.26847 0.36366
# Poissons Ratio (z) = 0.00609 0.35221
#
# Static dielectric constant tensor:
#      x y z
#    x 1.780680 0.000050 0.000180 
#    y 0.000050 1.784240 0.000160 
#    z 0.000180 0.000160 1.729540 
# 
# From -- ./inp_files/1501.got.cif
#   From: 2010.05.17/outbox.cif.g08.bks.cpg/sg74_1_cif.got.tgz:1501.got - 2010.06.03 17:57:02.
