data_PCOD9539479
_publ_section_title
;
Structure prediction by ZEFSAII (Michael W. Deem and Ramdas Pophale) SiO2 
 PCOD9539479
Probable space group: I M M A
;
_chemical_formula_sum "Si O2"
_cell_formula_units_Z 116
_cell_length_a 17.462810
_cell_length_b 18.676903
_cell_length_c 17.716686
_cell_angle_alpha 90.000000
_cell_angle_beta 90.000000
_cell_angle_gamma 90.000000
_cell_volume 5778.318549
_symmetry_space_group_name_H-M "I M M A"
_symmetry_group_IT_number 74
_symmetry_cell_setting 'orthorhombic'
loop_
_space_group_symop_operation_xyz
x,y,z
-x,1/2-y,z
x,-y,-z
-x,1/2+y,-z
-x,-y,-z
x,1/2+y,-z
-x,y,z
x,1/2-y,z
1/2+x,1/2+y,1/2+z
1/2-x,-y,1/2+z
1/2+x,1/2-y,1/2-z
1/2-x,y,1/2-z
1/2-x,1/2-y,1/2-z
1/2+x,y,1/2-z
1/2-x,1/2+y,1/2+z
1/2+x,-y,1/2+z
loop_
_atom_site_type_symbol
_atom_site_label
_atom_site_fract_x
_atom_site_fract_y
_atom_site_fract_z
Si Si1 0.091865 0.670675 0.119766
Si Si2 0.908069 0.331369 0.357005
Si Si3 0.093574 0.540158 0.222237
Si Si4 0.324065 0.415627 0.015030
Si Si5 0.000000 0.750000 0.320968
Si Si6 0.828300 0.331070 0.037539
Si Si7 0.407711 0.378315 0.310698
Si Si8 0.914964 0.111871 0.630088
O O1 0.119043 0.750000 0.144183
O O2 0.121080 0.603956 0.168181
O O3 0.000000 0.671435 0.128565
O O4 0.113298 0.661853 0.032347
O O5 0.887775 0.250000 0.379653
O O6 0.869765 0.388657 0.411678
O O7 0.886855 0.343549 0.269614
O O8 0.000000 0.338478 0.362089
O O9 0.115055 0.461862 0.194222
O O10 0.117151 0.557410 0.307817
O O11 0.000000 0.542016 0.223574
O O12 0.238286 0.388093 0.025569
O O13 0.362055 0.621019 0.058307
O O14 0.328767 0.500000 0.000000
O O15 0.065275 0.686172 0.327779
O O16 0.796998 0.250000 0.034793
O O17 0.869126 0.342918 0.117264
O O18 0.500000 0.373672 0.318158
O O19 0.000000 0.086094 0.603562
#
# Coordination Sequence:
#
# PCOD9539479 Si02
#       8
#    16  16  16  16   4  16  16  16
#     4   9  19  35  59  88 117 155 205 256 305 361
#     4  10  22  40  67  94 119 154 202 252 301 362
#     4   9  18  33  60  92 121 152 193 249 304 364
#     4  12  26  40  59  85 125 164 200 249 298 361
#     4   8  20  32  66  92 122 160 190 260 284 368
#     4  11  25  41  60  84 120 164 208 251 299 363
#     4  10  21  39  64  92 123 156 199 258 312 354
#     4   9  20  36  61  90 120 155 199 240 304 352
#
# _framework density 20.075043000000001
#
# number of rings (size 3 to 8) (size 9 to 14) (size 15 to 20)
#    0.414    1.655    0.000    2.483    4.828    4.138 
#    0.000    4.138    0.000    1.655    0.000    0.000 
#    0.000    0.000    0.000    0.000    0.000    0.000 
#
# Total GULP energy -323222.159319 kJ/mol
# GULP energy per Si atom -5572.795850 kJ/mol
# Density = 2.002935 g / cm^3
# Si number density = 20.075043 Si / 1000 Ang^3
#
#
#
# Elastic Constant Matrix: (Units=GPa)
#
#
# Indices 1 2 3 4 5 6 
#
# 1 12.3946 20.0137 11.8252 0.0000 0.0000 0.0000
# 2 20.0137 105.4729 26.8982 0.0000 0.0000 0.0000
# 3 11.8252 26.8982 83.8946 0.0000 0.0000 0.0000
# 4 0.0000 0.0000 0.0000 19.1851 0.0000 0.0000
# 5 0.0000 0.0000 0.0000 0.0000 -17.1558 0.0000
# 6 0.0000 0.0000 0.0000 0.0000 0.0000 24.6502
#
#
#
# Elastic Compliance Matrix: (Units=1/GPa)
#
#
# Indices 1 2 3 4 5 6 
#
# 1 0.124835 -0.020910 -0.010892 0.000000 0.000000 0.000000
# 2 -0.020910 0.013828 -0.001486 0.000000 0.000000 0.000000
# 3 -0.010892 -0.001486 0.013931 0.000000 0.000000 0.000000
# 4 0.000000 0.000000 0.000000 0.052124 0.000000 0.000000
# 5 0.000000 0.000000 0.000000 0.000000 -0.058289 0.000000
# 6 0.000000 0.000000 0.000000 0.000000 0.000000 0.040568
#
#
# Mechanical properties :
#
#
# Convention : Reuss Voigt Hill
#
# Bulk Modulus (GPa) = 11.62541 35.47072 23.54807
# Shear Modulus (GPa) = 17.71510 14.87089 16.29300
#
# Velocity S-wave (km/s) = 2.97382 2.72465 2.85196
# Velocity P-wave (km/s) = 4.19464 5.25412 4.75398
#
# Compressibility (1/GPa) = 0.08601844
#
# Stress axis : x y z
#
# Youngs Moduli (GPa) = 8.01057 72.31782 71.78019
#
# Poissons Ratio (x) = 1.51217 0.78181
# Poissons Ratio (y) = 0.16750 0.10667
# Poissons Ratio (z) = 0.08725 0.10747
#
# Static dielectric constant tensor:
#      x y z
#    x 1.701280 0.000000 0.000000 
#    y 0.000000 1.721590 0.000000 
#    z 0.000000 0.000000 1.703190 
# 
# From -- ./inp_files/44263.got.cif
#   From: 2010.05.17/outbox.cif.g08.bks.cpg/sg74_23_cif.got.tgz:44263.got - 2010.06.03 17:57:02.
