data_PCOD9539690
_publ_section_title
;
Structure prediction by ZEFSAII (Michael W. Deem and Ramdas Pophale) SiO2 
 PCOD9539690
Probable space group: I M M A
;
_chemical_formula_sum "Si O2"
_cell_formula_units_Z 88
_cell_length_a 10.646584
_cell_length_b 14.464110
_cell_length_c 29.201852
_cell_angle_alpha 90.000000
_cell_angle_beta 90.000000
_cell_angle_gamma 90.000000
_cell_volume 4496.891369
_symmetry_space_group_name_H-M "I M M A"
_symmetry_group_IT_number 74
_symmetry_cell_setting 'orthorhombic'
loop_
_space_group_symop_operation_xyz
x,y,z
-x,1/2-y,z
x,-y,-z
-x,1/2+y,-z
-x,-y,-z
x,1/2+y,-z
-x,y,z
x,1/2-y,z
1/2+x,1/2+y,1/2+z
1/2-x,-y,1/2+z
1/2+x,1/2-y,1/2-z
1/2-x,y,1/2-z
1/2-x,1/2-y,1/2-z
1/2+x,y,1/2-z
1/2-x,1/2+y,1/2+z
1/2+x,-y,1/2+z
loop_
_atom_site_type_symbol
_atom_site_label
_atom_site_fract_x
_atom_site_fract_y
_atom_site_fract_z
Si Si1 0.148112 0.750000 0.709038
Si Si2 0.357622 0.887077 0.553798
Si Si3 0.141387 0.607018 0.380292
Si Si4 0.643681 0.115360 0.125098
Si Si5 0.141712 0.111765 0.948597
Si Si6 0.135175 0.143308 0.724553
O O1 0.250000 0.750000 0.750000
O O2 0.165479 0.662776 0.674341
O O3 0.000000 0.750000 0.724012
O O4 0.500000 0.859465 0.566757
O O5 0.249859 0.856238 0.588593
O O6 0.335391 0.859356 0.501065
O O7 0.356794 0.999428 0.552789
O O8 0.149228 0.495948 0.373790
O O9 0.248775 0.640325 0.414382
O O10 0.156533 0.645683 0.329467
O O11 0.000000 0.628786 0.396667
O O12 0.500000 0.139767 0.111383
O O13 0.000000 0.140229 0.935648
O O14 0.127688 0.250000 0.740691
O O15 0.250000 0.096464 0.750000
O O16 0.000000 0.098568 0.733077
#
# Coordination Sequence:
#
# PCOD9539690 Si02
#       6
#     8  16  16  16  16  16
#     4  10  22  38  52  68  94 126 160 204 253 290
#     4   8  14  26  45  69  95 122 152 186 226 274
#     4   9  17  29  47  71  95 121 155 192 229 276
#     4   9  18  32  49  69  93 121 156 196 235 277
#     4   8  14  25  43  69  98 123 149 185 227 270
#     4   9  18  32  48  66  90 119 150 185 227 273
#
# _framework density 19.569072999999999
#
# number of rings (size 3 to 8) (size 9 to 14) (size 15 to 20)
#    0.000    3.273    0.000    1.091    0.000    2.909 
#    0.000    3.636    2.000    0.000    0.000    0.000 
#    0.000    0.000    0.000    0.000    0.000    0.000 
#
# Total GULP energy -245179.501800 kJ/mol
# GULP energy per Si atom -5572.261405 kJ/mol
# Density = 1.952453 g / cm^3
# Si number density = 19.569073 Si / 1000 Ang^3
#
#
#
# Elastic Constant Matrix: (Units=GPa)
#
#
# Indices 1 2 3 4 5 6 
#
# 1 222.3284 17.4612 133.5385 0.0000 0.0000 0.0000
# 2 17.4612 70.3304 9.1244 0.0000 0.0000 0.0000
# 3 133.5385 9.1244 96.9635 0.0000 0.0000 0.0000
# 4 0.0000 0.0000 0.0000 24.3174 0.0000 0.0000
# 5 0.0000 0.0000 0.0000 0.0000 48.3082 0.0000
# 6 0.0000 0.0000 0.0000 0.0000 0.0000 -173.8591
#
#
#
# Elastic Compliance Matrix: (Units=1/GPa)
#
#
# Indices 1 2 3 4 5 6 
#
# 1 0.026265 -0.001851 -0.035998 0.000000 0.000000 0.000000
# 2 -0.001851 0.014525 0.001182 0.000000 0.000000 0.000000
# 3 -0.035998 0.001182 0.059778 0.000000 0.000000 0.000000
# 4 0.000000 0.000000 0.000000 0.041123 0.000000 0.000000
# 5 0.000000 0.000000 0.000000 0.000000 0.020700 0.000000
# 6 0.000000 0.000000 0.000000 0.000000 0.000000 -0.005752
#
#
# Mechanical properties :
#
#
# Convention : Reuss Voigt Hill
#
# Bulk Modulus (GPa) = 36.71783 78.87452 57.79618
# Shear Modulus (GPa) = 20.91603 -4.94682 7.98461
#
# Velocity S-wave (km/s) = 3.27284 -1.59165 2.02215
# Velocity P-wave (km/s) = 5.75204 6.08403 5.92036
#
# Compressibility (1/GPa) = 0.02723473
#
# Stress axis : x y z
#
# Youngs Moduli (GPa) = 38.07366 68.84809 16.72843
#
# Poissons Ratio (x) = 0.12741 0.60219
# Poissons Ratio (y) = 0.07046 -0.01977
# Poissons Ratio (z) = 1.37057 -0.08137
#
# Static dielectric constant tensor:
#      x y z
#    x 1.716490 0.000000 0.000000 
#    y 0.000000 1.745360 0.000000 
#    z 0.000000 0.000000 1.633220 
# 
# From -- ./inp_files/70236.got.cif
#   From: 2010.05.17/outbox.cif.g08.bks.cpg/sg74_36_cif.got.tgz:70236.got - 2010.06.03 17:57:02.
