data_PCOD9539913
_publ_section_title
;
Structure prediction by ZEFSAII (Michael W. Deem and Ramdas Pophale) SiO2 
 PCOD9539913
Probable space group: I M M A
;
_chemical_formula_sum "Si O2"
_cell_formula_units_Z 96
_cell_length_a 18.904294
_cell_length_b 24.749854
_cell_length_c 10.457430
_cell_angle_alpha 90.000000
_cell_angle_beta 90.000000
_cell_angle_gamma 90.000000
_cell_volume 4892.806835
_symmetry_space_group_name_H-M "I M M A"
_symmetry_group_IT_number 74
_symmetry_cell_setting 'orthorhombic'
loop_
_space_group_symop_operation_xyz
x,y,z
-x,1/2-y,z
x,-y,-z
-x,1/2+y,-z
-x,-y,-z
x,1/2+y,-z
-x,y,z
x,1/2-y,z
1/2+x,1/2+y,1/2+z
1/2-x,-y,1/2+z
1/2+x,1/2-y,1/2-z
1/2-x,y,1/2-z
1/2-x,1/2-y,1/2-z
1/2+x,y,1/2-z
1/2-x,1/2+y,1/2+z
1/2+x,-y,1/2+z
loop_
_atom_site_type_symbol
_atom_site_label
_atom_site_fract_x
_atom_site_fract_y
_atom_site_fract_z
Si Si1 0.082111 0.310367 0.236867
Si Si2 0.249860 0.189583 0.900371
Si Si3 0.625380 0.623499 0.973852
Si Si4 0.236879 0.959868 0.610055
Si Si5 0.135633 0.388014 0.015917
Si Si6 0.500000 0.552787 0.093528
Si Si7 0.000000 0.051766 0.902537
O O1 0.113955 0.250000 0.228644
O O2 0.088813 0.334619 0.378267
O O3 0.112874 0.353432 0.138516
O O4 0.000000 0.306155 0.204633
O O5 0.248074 0.250000 0.958550
O O6 0.250000 0.194873 0.750000
O O7 0.319459 0.157005 0.941571
O O8 0.182088 0.153976 0.935514
O O9 0.675771 0.585106 0.887082
O O10 0.568907 0.588358 0.053455
O O11 0.250000 0.984117 0.750000
O O12 0.310183 0.934133 0.561932
O O13 0.212975 0.000000 0.500000
O O14 0.069750 0.413780 0.940807
O O15 0.500000 0.540152 0.247744
O O16 0.500000 0.500000 0.000000
O O17 0.000000 0.000000 0.000000
#
# Coordination Sequence:
#
# PCOD9539913 Si02
#       7
#    16  16  16  16  16   8   8
#     4  11  22  39  69 101 131 169 217 277 339 396
#     4  10  22  41  65  93 130 172 214 266 333 396
#     4  11  23  42  66  93 134 166 224 270 331 390
#     4  11  24  40  63  93 128 176 219 273 320 384
#     4  11  23  42  66  93 134 166 224 270 331 390
#     4  12  28  44  68  97 133 179 225 274 330 391
#     4  12  28  44  68  97 133 179 225 274 330 391
#
# _framework density 19.620640000000002
#
# number of rings (size 3 to 8) (size 9 to 14) (size 15 to 20)
#    0.000    1.000    3.333    3.000    2.333    6.667 
#    0.000    2.500    0.000    4.000    0.000    0.000 
#    0.000    0.000    0.000    0.000    0.000    0.000 
#
# Total GULP energy -267961.294212 kJ/mol
# GULP energy per Si atom -5582.526963 kJ/mol
# Density = 1.957598 g / cm^3
# Si number density = 19.620640 Si / 1000 Ang^3
#
#
#
# Elastic Constant Matrix: (Units=GPa)
#
#
# Indices 1 2 3 4 5 6 
#
# 1 115.9410 43.4011 28.8779 0.0000 0.0000 0.0000
# 2 43.4011 110.0652 46.4110 0.0000 0.0000 0.0000
# 3 28.8779 46.4110 121.1266 0.0000 0.0000 0.0000
# 4 0.0000 0.0000 0.0000 29.3708 0.0000 0.0000
# 5 0.0000 0.0000 0.0000 0.0000 12.0986 0.0000
# 6 0.0000 0.0000 0.0000 0.0000 0.0000 15.9934
#
#
#
# Elastic Compliance Matrix: (Units=1/GPa)
#
#
# Indices 1 2 3 4 5 6 
#
# 1 0.010233 -0.003586 -0.001066 0.000000 0.000000 0.000000
# 2 -0.003586 0.012093 -0.003779 0.000000 0.000000 0.000000
# 3 -0.001066 -0.003779 0.009958 0.000000 0.000000 0.000000
# 4 0.000000 0.000000 0.000000 0.034047 0.000000 0.000000
# 5 0.000000 0.000000 0.000000 0.000000 0.082654 0.000000
# 6 0.000000 0.000000 0.000000 0.000000 0.000000 0.062526
#
#
# Mechanical properties :
#
#
# Convention : Reuss Voigt Hill
#
# Bulk Modulus (GPa) = 64.83701 64.94587 64.89144
# Shear Modulus (GPa) = 21.41220 26.72208 24.06714
#
# Velocity S-wave (km/s) = 3.30708 3.69445 3.50612
# Velocity P-wave (km/s) = 6.90648 7.16737 7.03813
#
# Compressibility (1/GPa) = 0.01542329
#
# Stress axis : x y z
#
# Youngs Moduli (GPa) = 97.72538 82.69433 100.42451
#
# Poissons Ratio (x) = 0.29651 0.10703
# Poissons Ratio (y) = 0.35041 0.37947
# Poissons Ratio (z) = 0.10415 0.31247
#
# Static dielectric constant tensor:
#      x y z
#    x 1.667830 0.000000 0.000000 
#    y 0.000000 1.799360 0.000000 
#    z 0.000000 0.000000 1.681350 
# 
# From -- ./inp_files/22539.got.cif
#   From: 2010.05.17/outbox.cif.g08.bks.cpg/sg74_12_cif.got.tgz:22539.got - 2010.06.03 17:57:02.
