data_PCOD9539431
_publ_section_title
;
Structure prediction by ZEFSAII (Michael W. Deem and Ramdas Pophale) SiO2 
 PCOD9539431
Probable space group: I M M A
;
_chemical_formula_sum "Si O2"
_cell_formula_units_Z 64
_cell_length_a 21.215071
_cell_length_b 16.717817
_cell_length_c 9.038606
_cell_angle_alpha 90.000000
_cell_angle_beta 90.000000
_cell_angle_gamma 90.000000
_cell_volume 3205.719449
_symmetry_space_group_name_H-M "I M M A"
_symmetry_group_IT_number 74
_symmetry_cell_setting 'orthorhombic'
loop_
_space_group_symop_operation_xyz
x,y,z
-x,1/2-y,z
x,-y,-z
-x,1/2+y,-z
-x,-y,-z
x,1/2+y,-z
-x,y,z
x,1/2-y,z
1/2+x,1/2+y,1/2+z
1/2-x,-y,1/2+z
1/2+x,1/2-y,1/2-z
1/2-x,y,1/2-z
1/2-x,1/2-y,1/2-z
1/2+x,y,1/2-z
1/2-x,1/2+y,1/2+z
1/2+x,-y,1/2+z
loop_
_atom_site_type_symbol
_atom_site_label
_atom_site_fract_x
_atom_site_fract_y
_atom_site_fract_z
Si Si1 0.500000 0.841410 0.871941
Si Si2 0.884679 0.907953 0.447894
Si Si3 0.114412 0.657532 0.123910
Si Si4 0.756264 0.414487 0.926213
Si Si5 0.500000 0.090350 0.442345
O O1 0.500000 0.750000 0.818642
O O2 0.500000 0.901064 0.733345
O O3 0.562037 0.858185 0.968912
O O4 0.893438 0.895780 0.271959
O O5 0.811943 0.883569 0.479807
O O6 0.890630 0.000000 0.500000
O O7 0.108710 0.750000 0.167542
O O8 0.183367 0.641417 0.055684
O O9 0.061255 0.633538 0.008343
O O10 0.750000 0.426700 0.750000
O O11 0.768611 0.500000 0.000000
O O12 0.500000 0.000000 0.500000
#
# Coordination Sequence:
#
# PCOD9539431 Si02
#       5
#     8  16  16  16   8
#     4  12  24  38  58  86 118 148 190 246 296 338
#     4  10  21  39  61  86 116 156 198 235 283 347
#     4  11  22  38  61  89 120 152 192 242 295 346
#     4   9  20  37  60  87 116 153 198 239 283 346
#     4  12  25  42  61  82 114 156 198 238 287 352
#
# _framework density 19.964316
#
# number of rings (size 3 to 8) (size 9 to 14) (size 15 to 20)
#    0.000    1.500    0.000    5.250    0.000    9.500 
#    0.000    0.000    0.000    3.750    0.000    0.000 
#    0.000    0.000    0.000    0.000    0.000    0.000 
#
# Total GULP energy -178798.221879 kJ/mol
# GULP energy per Si atom -5587.444434 kJ/mol
# Density = 1.991888 g / cm^3
# Si number density = 19.964316 Si / 1000 Ang^3
#
#
#
# Elastic Constant Matrix: (Units=GPa)
#
#
# Indices 1 2 3 4 5 6 
#
# 1 127.3354 43.0157 58.5681 0.0000 0.0000 0.0000
# 2 43.0157 59.6666 2.1830 0.0000 0.0000 0.0000
# 3 58.5681 2.1830 46.7929 0.0000 0.0000 0.0000
# 4 0.0000 0.0000 0.0000 24.3832 0.0000 0.0000
# 5 0.0000 0.0000 0.0000 0.0000 -8.1726 0.0000
# 6 0.0000 0.0000 0.0000 0.0000 0.0000 74.7505
#
#
#
# Elastic Compliance Matrix: (Units=1/GPa)
#
#
# Indices 1 2 3 4 5 6 
#
# 1 0.037334 -0.025249 -0.045551 0.000000 0.000000 0.000000
# 2 -0.025249 0.033864 0.030022 0.000000 0.000000 0.000000
# 3 -0.045551 0.030022 0.076983 0.000000 0.000000 0.000000
# 4 0.000000 0.000000 0.000000 0.041012 0.000000 0.000000
# 5 0.000000 0.000000 0.000000 0.000000 -0.122360 0.000000
# 6 0.000000 0.000000 0.000000 0.000000 0.000000 0.013378
#
#
# Mechanical properties :
#
#
# Convention : Reuss Voigt Hill
#
# Bulk Modulus (GPa) = 15.00884 49.03650 32.02267
# Shear Modulus (GPa) = 27.17789 26.86075 27.01932
#
# Velocity S-wave (km/s) = 3.69361 3.67200 3.68282
# Velocity P-wave (km/s) = 5.07194 6.52637 5.84457
#
# Compressibility (1/GPa) = 0.06662739
#
# Stress axis : x y z
#
# Youngs Moduli (GPa) = 26.78553 29.52996 12.98984
#
# Poissons Ratio (x) = 0.74559 0.59169
# Poissons Ratio (y) = 0.67630 -0.38999
# Poissons Ratio (z) = 1.22009 -0.88656
#
# Static dielectric constant tensor:
#      x y z
#    x 1.717530 0.000000 0.000000 
#    y 0.000000 1.673100 0.000000 
#    z 0.000000 0.000000 1.666710 
# 
# From -- ./inp_files/11816.got.cif
#   From: 2010.05.17/outbox.cif.g08.bks.cpg/sg74_6_cif.got.tgz:11816.got - 2010.06.03 17:57:02.
