data_PCOD9540525
_publ_section_title
;
Structure prediction by ZEFSAII (Michael W. Deem and Ramdas Pophale) SiO2 
 PCOD9540525
Probable space group: I M M A
;
_chemical_formula_sum "Si O2"
_cell_formula_units_Z 68
_cell_length_a 14.379476
_cell_length_b 26.700644
_cell_length_c 8.081903
_cell_angle_alpha 90.000000
_cell_angle_beta 90.000000
_cell_angle_gamma 90.000000
_cell_volume 3102.976098
_symmetry_space_group_name_H-M "I M M A"
_symmetry_group_IT_number 74
_symmetry_cell_setting 'orthorhombic'
loop_
_space_group_symop_operation_xyz
x,y,z
-x,1/2-y,z
x,-y,-z
-x,1/2+y,-z
-x,-y,-z
x,1/2+y,-z
-x,y,z
x,1/2-y,z
1/2+x,1/2+y,1/2+z
1/2-x,-y,1/2+z
1/2+x,1/2-y,1/2-z
1/2-x,y,1/2-z
1/2-x,1/2-y,1/2-z
1/2+x,y,1/2-z
1/2-x,1/2+y,1/2+z
1/2+x,-y,1/2+z
loop_
_atom_site_type_symbol
_atom_site_label
_atom_site_fract_x
_atom_site_fract_y
_atom_site_fract_z
Si Si1 0.000000 0.063521 0.163686
Si Si2 0.338237 0.805939 0.340988
Si Si3 0.313237 0.949870 0.095025
Si Si4 0.179063 0.879111 0.877848
Si Si5 0.000000 0.554009 0.234772
Si Si6 0.500000 0.750000 0.188113
O O1 0.904744 0.091421 0.210457
O O2 0.000000 0.007027 0.230401
O O3 0.000000 0.064896 0.961720
O O4 0.310060 0.750000 0.403707
O O5 0.250000 0.829244 0.250000
O O6 0.364776 0.839763 0.494817
O O7 0.419069 0.793176 0.213149
O O8 0.250000 0.965313 0.250000
O O9 0.407467 0.927151 0.172652
O O10 0.245753 0.916738 0.980301
O O11 0.340231 0.000000 0.000000
O O12 0.250000 0.853770 0.750000
#
# Coordination Sequence:
#
# PCOD9540525 Si02
#       6
#     8  16  16  16   8   4
#     4  11  23  42  61  92 122 175 212 254 317 382
#     4   9  20  40  67  95 119 157 206 251 316 380
#     4  12  23  39  61  91 124 172 211 264 311 365
#     4  12  25  41  65  93 130 166 210 261 314 381
#     4  11  23  40  61  88 128 166 221 259 307 369
#     4   8  16  40  68  88 120 162 188 256 312 382
#
# _framework density 21.914444
#
# number of rings (size 3 to 8) (size 9 to 14) (size 15 to 20)
#    0.706    0.471    2.353    5.294    0.000    1.412 
#    0.000    1.176    0.000    0.000    0.000    0.000 
#    0.000    0.000    0.000    0.000    0.000    0.000 
#
# Total GULP energy -189321.521175 kJ/mol
# GULP energy per Si atom -5568.280035 kJ/mol
# Density = 2.186457 g / cm^3
# Si number density = 21.914444 Si / 1000 Ang^3
#
#
#
# Elastic Constant Matrix: (Units=GPa)
#
#
# Indices 1 2 3 4 5 6 
#
# 1 145.9284 -4.8793 5.7079 0.0010 0.0005 0.0000
# 2 -4.8793 44.9686 -7.5231 -0.0069 -0.0003 0.0018
# 3 5.7079 -7.5231 21.6680 -0.0147 0.0007 0.0088
# 4 0.0010 -0.0069 -0.0147 13.8872 -0.0009 0.0062
# 5 0.0005 -0.0003 0.0007 -0.0009 29.8225 0.0006
# 6 0.0000 0.0018 0.0088 0.0062 0.0006 20.1761
#
#
#
# Elastic Compliance Matrix: (Units=1/GPa)
#
#
# Indices 1 2 3 4 5 6 
#
# 1 0.006934 0.000474 -0.001662 -0.000002 0.000000 0.000001
# 2 0.000474 0.023642 0.008083 0.000020 0.000000 -0.000006
# 3 -0.001662 0.008083 0.049395 0.000057 -0.000001 -0.000022
# 4 -0.000002 0.000020 0.000057 0.072009 0.000002 -0.000022
# 5 0.000000 0.000000 -0.000001 0.000002 0.033532 -0.000001
# 6 0.000001 -0.000006 -0.000022 -0.000022 -0.000001 0.049564
#
#
# Mechanical properties :
#
#
# Convention : Reuss Voigt Hill
#
# Bulk Modulus (GPa) = 10.66529 22.13068 16.39798
# Shear Modulus (GPa) = 19.79907 27.39444 23.59675
#
# Velocity S-wave (km/s) = 3.00904 3.53946 3.28497
# Velocity P-wave (km/s) = 4.11701 5.17922 4.67836
#
# Compressibility (1/GPa) = 0.09376209
#
# Stress axis : x y z
#
# Youngs Moduli (GPa) = 144.22658 42.29843 20.24484
#
# Poissons Ratio (x) = -0.02006 0.03364
# Poissons Ratio (y) = -0.06841 -0.16365
# Poissons Ratio (z) = 0.23968 -0.34191
#
# Static dielectric constant tensor:
#      x y z
#    x 1.832720 0.000000 0.000000 
#    y 0.000000 1.818990 0.000000 
#    z 0.000000 0.000000 1.865570 
# 
# From -- ./inp_files/9068.got.cif
#   From: 2010.05.17/outbox.cif.g08.bks.cpg/sg74_5_cif.got.tgz:9068.got - 2010.06.03 17:57:02.
