data_PCOD9540531
_publ_section_title
;
Structure prediction by ZEFSAII (Michael W. Deem and Ramdas Pophale) SiO2 
 PCOD9540531
Probable space group: I M M A
;
_chemical_formula_sum "Si O2"
_cell_formula_units_Z 68
_cell_length_a 22.685603
_cell_length_b 7.690861
_cell_length_c 17.414172
_cell_angle_alpha 90.000000
_cell_angle_beta 90.000000
_cell_angle_gamma 90.000000
_cell_volume 3038.282272
_symmetry_space_group_name_H-M "I M M A"
_symmetry_group_IT_number 74
_symmetry_cell_setting 'orthorhombic'
loop_
_space_group_symop_operation_xyz
x,y,z
-x,1/2-y,z
x,-y,-z
-x,1/2+y,-z
-x,-y,-z
x,1/2+y,-z
-x,y,z
x,1/2-y,z
1/2+x,1/2+y,1/2+z
1/2-x,-y,1/2+z
1/2+x,1/2-y,1/2-z
1/2-x,y,1/2-z
1/2-x,1/2-y,1/2-z
1/2+x,y,1/2-z
1/2-x,1/2+y,1/2+z
1/2+x,-y,1/2+z
loop_
_atom_site_type_symbol
_atom_site_label
_atom_site_fract_x
_atom_site_fract_y
_atom_site_fract_z
Si Si1 0.587896 0.546271 0.365688
Si Si2 0.563514 0.962210 0.193660
Si Si3 0.500000 0.500000 0.500000
Si Si4 0.168783 0.457493 0.586412
Si Si5 0.281356 0.450024 0.327713
O O1 0.571431 0.750000 0.373584
O O2 0.567932 0.482839 0.281916
O O3 0.552144 0.461814 0.434976
O O4 0.658754 0.533393 0.359467
O O5 0.500000 0.013816 0.161424
O O6 0.565876 0.750000 0.194224
O O7 0.618855 0.022555 0.144769
O O8 0.151768 0.500000 0.500000
O O9 0.174390 0.250000 0.595290
O O10 0.231070 0.539079 0.608400
O O11 0.296259 0.250000 0.310048
O O12 0.250000 0.524840 0.250000
#
# Coordination Sequence:
#
# PCOD9540531 Si02
#       5
#    16  16   4  16  16
#     4  11  23  42  67  94 130 176 225 270 328 404
#     4   9  18  37  65  93 121 166 217 261 316 393
#     4  12  26  40  68 106 140 172 224 296 334 406
#     4  11  23  40  65  94 130 169 217 273 331 396
#     4  11  24  42  66  96 131 170 220 281 339 396
#
# _framework density 22.381067999999999
#
# number of rings (size 3 to 8) (size 9 to 14) (size 15 to 20)
#    0.000    1.412    3.529    1.765    1.647    3.294 
#    0.000    0.000    0.000    4.941    0.000    0.000 
#    0.000    0.000    0.000    0.000    0.000    0.000 
#
# Total GULP energy -189475.622332 kJ/mol
# GULP energy per Si atom -5572.812422 kJ/mol
# Density = 2.233013 g / cm^3
# Si number density = 22.381068 Si / 1000 Ang^3
#
#
#
# Elastic Constant Matrix: (Units=GPa)
#
#
# Indices 1 2 3 4 5 6 
#
# 1 201.0101 3.7032 63.7720 0.0000 0.0000 0.0000
# 2 3.7032 54.0277 -1.7261 0.0000 0.0000 0.0000
# 3 63.7720 -1.7261 138.2407 0.0000 0.0000 0.0000
# 4 0.0000 0.0000 0.0000 3.3086 0.0000 0.0000
# 5 0.0000 0.0000 0.0000 0.0000 43.2092 0.0000
# 6 0.0000 0.0000 0.0000 0.0000 0.0000 -26.4365
#
#
#
# Elastic Compliance Matrix: (Units=1/GPa)
#
#
# Indices 1 2 3 4 5 6 
#
# 1 0.005841 -0.000487 -0.002700 0.000000 0.000000 0.000000
# 2 -0.000487 0.018557 0.000456 0.000000 0.000000 0.000000
# 3 -0.002700 0.000456 0.008485 0.000000 0.000000 0.000000
# 4 0.000000 0.000000 0.000000 0.302245 0.000000 0.000000
# 5 0.000000 0.000000 0.000000 0.000000 0.023143 0.000000
# 6 0.000000 0.000000 0.000000 0.000000 0.000000 -0.037826
#
#
# Mechanical properties :
#
#
# Convention : Reuss Voigt Hill
#
# Bulk Modulus (GPa) = 36.46831 58.30853 47.38842
# Shear Modulus (GPa) = 14.92330 25.85155 20.38742
#
# Velocity S-wave (km/s) = 2.58501 3.40231 3.02142
# Velocity P-wave (km/s) = 5.02388 6.44542 5.77853
#
# Compressibility (1/GPa) = 0.02742107
#
# Stress axis : x y z
#
# Youngs Moduli (GPa) = 171.21656 53.88812 117.85263
#
# Poissons Ratio (x) = 0.02622 0.31825
# Poissons Ratio (y) = 0.08331 -0.05376
# Poissons Ratio (z) = 0.46235 -0.02458
#
# Static dielectric constant tensor:
#      x y z
#    x 1.859040 0.000000 0.000000 
#    y 0.000000 1.902750 0.000000 
#    z 0.000000 0.000000 1.795560 
# 
# From -- ./inp_files/44854.got.cif
#   From: 2010.05.17/outbox.cif.g08.bks.cpg/sg74_23_cif.got.tgz:44854.got - 2010.06.03 17:57:02.
