data_PCOD9540038
_publ_section_title
;
Structure prediction by ZEFSAII (Michael W. Deem and Ramdas Pophale) SiO2 
 PCOD9540038
Probable space group: I M M A
;
_chemical_formula_sum "Si O2"
_cell_formula_units_Z 52
_cell_length_a 13.638804
_cell_length_b 17.791871
_cell_length_c 11.090566
_cell_angle_alpha 90.000000
_cell_angle_beta 90.000000
_cell_angle_gamma 90.000000
_cell_volume 2691.234986
_symmetry_space_group_name_H-M "I M M A"
_symmetry_group_IT_number 74
_symmetry_cell_setting 'orthorhombic'
loop_
_space_group_symop_operation_xyz
x,y,z
-x,1/2-y,z
x,-y,-z
-x,1/2+y,-z
-x,-y,-z
x,1/2+y,-z
-x,y,z
x,1/2-y,z
1/2+x,1/2+y,1/2+z
1/2-x,-y,1/2+z
1/2+x,1/2-y,1/2-z
1/2-x,y,1/2-z
1/2-x,1/2-y,1/2-z
1/2+x,y,1/2-z
1/2-x,1/2+y,1/2+z
1/2+x,-y,1/2+z
loop_
_atom_site_type_symbol
_atom_site_label
_atom_site_fract_x
_atom_site_fract_y
_atom_site_fract_z
Si Si1 0.500000 0.086458 0.148368
Si Si2 0.500000 0.475263 0.639215
Si Si3 0.303956 0.884003 0.367047
Si Si4 0.887369 0.750000 0.981663
Si Si5 0.336134 0.000000 0.000000
Si Si6 0.500000 0.250000 0.243958
O O1 0.500000 0.175401 0.164583
O O2 0.500000 0.049634 0.280545
O O3 0.593912 0.053736 0.078613
O O4 0.500000 0.500000 0.500000
O O5 0.595325 0.425781 0.667217
O O6 0.250000 0.850472 0.250000
O O7 0.331923 0.822534 0.467275
O O8 0.232413 0.947390 0.419521
O O9 0.000000 0.750000 0.031808
O O10 0.907851 0.750000 0.838136
#
# Coordination Sequence:
#
# PCOD9540038 Si02
#       6
#     8   8  16   8   8   4
#     4  11  24  47  63 102 139 174 228 283 348 411
#     4  12  21  38  68  94 131 175 231 283 332 413
#     4  12  23  40  66  97 133 181 228 289 347 410
#     4  10  23  42  63 100 133 171 234 283 349 403
#     4  11  26  41  70 100 136 181 232 275 350 418
#     4  10  24  46  74  92 140 182 216 288 348 398
#
# _framework density 19.321985000000002
#
# number of rings (size 3 to 8) (size 9 to 14) (size 15 to 20)
#    0.462    0.308    6.154    2.308    0.000    1.231 
#    0.000    1.538    0.000    0.000    0.000    0.000 
#    0.000    0.000    0.000    0.000    0.000    0.000 
#
# Total GULP energy -145267.474769 kJ/mol
# GULP energy per Si atom -5587.210568 kJ/mol
# Density = 1.927801 g / cm^3
# Si number density = 19.321985 Si / 1000 Ang^3
#
#
#
# Elastic Constant Matrix: (Units=GPa)
#
#
# Indices 1 2 3 4 5 6 
#
# 1 134.3683 55.2657 40.6176 0.0000 0.0000 0.0000
# 2 55.2657 152.0815 40.8368 0.0000 0.0000 0.0000
# 3 40.6176 40.8368 81.8270 0.0000 0.0000 0.0000
# 4 0.0000 0.0000 0.0000 37.6498 0.0000 0.0000
# 5 0.0000 0.0000 0.0000 0.0000 -18.7579 0.0000
# 6 0.0000 0.0000 0.0000 0.0000 0.0000 7.6704
#
#
#
# Elastic Compliance Matrix: (Units=1/GPa)
#
#
# Indices 1 2 3 4 5 6 
#
# 1 0.009532 -0.002533 -0.003468 0.000000 0.000000 0.000000
# 2 -0.002533 0.008266 -0.002868 0.000000 0.000000 0.000000
# 3 -0.003468 -0.002868 0.015373 0.000000 0.000000 0.000000
# 4 0.000000 0.000000 0.000000 0.026561 0.000000 0.000000
# 5 0.000000 0.000000 0.000000 0.000000 -0.053311 0.000000
# 6 0.000000 0.000000 0.000000 0.000000 0.000000 0.130371
#
#
# Mechanical properties :
#
#
# Convention : Reuss Voigt Hill
#
# Bulk Modulus (GPa) = 64.78861 71.30191 68.04526
# Shear Modulus (GPa) = 31.31373 20.74958 26.03166
#
# Velocity S-wave (km/s) = 4.03007 3.28057 3.67448
# Velocity P-wave (km/s) = 7.43365 7.16461 7.30037
#
# Compressibility (1/GPa) = 0.01543481
#
# Stress axis : x y z
#
# Youngs Moduli (GPa) = 104.90772 120.97827 65.04723
#
# Poissons Ratio (x) = 0.30642 0.22556
# Poissons Ratio (y) = 0.26571 0.18655
# Poissons Ratio (z) = 0.36378 0.34696
#
# Static dielectric constant tensor:
#      x y z
#    x 1.660870 0.000000 0.000000 
#    y 0.000000 1.647860 0.000000 
#    z 0.000000 0.000000 1.683330 
# 
# From -- ./inp_files/19662.got.cif
#   From: 2010.05.17/outbox.cif.g08.bks.cpg/sg74_10_cif.got.tgz:19662.got - 2010.06.03 17:57:02.
