data_PCOD9540612
_publ_section_title
;
Structure prediction by ZEFSAII (Michael W. Deem and Ramdas Pophale) SiO2 
 PCOD9540612
Probable space group: I M M A
;
_chemical_formula_sum "Si O2"
_cell_formula_units_Z 64
_cell_length_a 15.427464
_cell_length_b 11.001166
_cell_length_c 16.567572
_cell_angle_alpha 90.000000
_cell_angle_beta 90.000000
_cell_angle_gamma 90.000000
_cell_volume 2811.849851
_symmetry_space_group_name_H-M "I M M A"
_symmetry_group_IT_number 74
_symmetry_cell_setting 'orthorhombic'
loop_
_space_group_symop_operation_xyz
x,y,z
-x,1/2-y,z
x,-y,-z
-x,1/2+y,-z
-x,-y,-z
x,1/2+y,-z
-x,y,z
x,1/2-y,z
1/2+x,1/2+y,1/2+z
1/2-x,-y,1/2+z
1/2+x,1/2-y,1/2-z
1/2-x,y,1/2-z
1/2-x,1/2-y,1/2-z
1/2+x,y,1/2-z
1/2-x,1/2+y,1/2+z
1/2+x,-y,1/2+z
loop_
_atom_site_type_symbol
_atom_site_label
_atom_site_fract_x
_atom_site_fract_y
_atom_site_fract_z
Si Si1 0.095888 0.250000 0.609286
Si Si2 0.651949 0.750000 0.286241
Si Si3 0.224932 0.881510 0.947191
Si Si4 0.655934 0.015045 0.292952
Si Si5 0.901133 0.525715 0.617360
O O1 0.093392 0.250000 0.706530
O O2 0.129891 0.386780 0.594919
O O3 0.000000 0.250000 0.573714
O O4 0.750000 0.750000 0.250000
O O5 0.638135 0.620515 0.327034
O O6 0.212415 0.750000 0.986683
O O7 0.165785 0.894113 0.866848
O O8 0.325291 0.891239 0.917521
O O9 0.207251 0.000000 0.000000
O O10 0.750000 0.010596 0.250000
O O11 0.597687 0.039420 0.214734
O O12 0.000000 0.544289 0.589111
#
# Coordination Sequence:
#
# PCOD9540612 Si02
#       5
#     8   8  16  16  16
#     4   8  14  26  48  80 110 134 164 206 260 316
#     4   8  12  22  46  76  98 128 166 210 261 306
#     4  11  25  38  53  78 111 149 184 220 270 328
#     4   8  16  31  54  78 105 136 181 228 265 310
#     4   9  18  34  58  85 111 140 179 226 273 320
#
# _framework density 22.760818
#
# number of rings (size 3 to 8) (size 9 to 14) (size 15 to 20)
#    0.000    3.000    0.000    1.500    3.500    5.500 
#    0.000    0.000    0.000    0.750    0.000    0.000 
#    0.000    0.000    0.000    0.000    0.000    0.000 
#
# Total GULP energy -178271.072125 kJ/mol
# GULP energy per Si atom -5570.971004 kJ/mol
# Density = 2.270901 g / cm^3
# Si number density = 22.760818 Si / 1000 Ang^3
#
#
#
# Elastic Constant Matrix: (Units=GPa)
#
#
# Indices 1 2 3 4 5 6 
#
# 1 40.7690 -4.8644 26.5426 0.0000 0.0000 0.0000
# 2 -4.8644 143.3812 36.3816 0.0000 0.0000 0.0000
# 3 26.5426 36.3816 93.6800 0.0000 0.0000 0.0000
# 4 0.0000 0.0000 0.0000 35.7572 0.0000 0.0000
# 5 0.0000 0.0000 0.0000 0.0000 3.7594 0.0000
# 6 0.0000 0.0000 0.0000 0.0000 0.0000 3.4799
#
#
#
# Elastic Compliance Matrix: (Units=1/GPa)
#
#
# Indices 1 2 3 4 5 6 
#
# 1 0.031779 0.003730 -0.010453 0.000000 0.000000 0.000000
# 2 0.003730 0.008175 -0.004232 0.000000 0.000000 0.000000
# 3 -0.010453 -0.004232 0.015280 0.000000 0.000000 0.000000
# 4 0.000000 0.000000 0.000000 0.027966 0.000000 0.000000
# 5 0.000000 0.000000 0.000000 0.000000 0.265996 0.000000
# 6 0.000000 0.000000 0.000000 0.000000 0.000000 0.287361
#
#
# Mechanical properties :
#
#
# Convention : Reuss Voigt Hill
#
# Bulk Modulus (GPa) = 30.00733 43.77219 36.88976
# Shear Modulus (GPa) = 7.46744 23.25067 15.35906
#
# Velocity S-wave (km/s) = 1.81327 3.19959 2.60051
# Velocity P-wave (km/s) = 4.19480 5.73786 5.02590
#
# Compressibility (1/GPa) = 0.03332519
#
# Stress axis : x y z
#
# Youngs Moduli (GPa) = 31.46755 122.32820 65.44651
#
# Poissons Ratio (x) = -0.45634 0.68409
# Poissons Ratio (y) = -0.11739 0.27695
# Poissons Ratio (z) = 0.32892 0.51766
#
# Static dielectric constant tensor:
#      x y z
#    x 1.808420 0.000000 0.000000 
#    y 0.000000 1.891250 0.000000 
#    z 0.000000 0.000000 1.886610 
# 
# From -- ./inp_files/44946.got.cif
#   From: 2010.05.17/outbox.cif.g08.bks.cpg/sg74_23_cif.got.tgz:44946.got - 2010.06.03 17:57:02.
