data_PCOD9540006
_publ_section_title
;
Structure prediction by ZEFSAII (Michael W. Deem and Ramdas Pophale) SiO2 
 PCOD9540006
Probable space group: I M M A
;
_chemical_formula_sum "Si O2"
_cell_formula_units_Z 64
_cell_length_a 10.113278
_cell_length_b 23.276270
_cell_length_c 13.551195
_cell_angle_alpha 90.000000
_cell_angle_beta 90.000000
_cell_angle_gamma 90.000000
_cell_volume 3189.943027
_symmetry_space_group_name_H-M "I M M A"
_symmetry_group_IT_number 74
_symmetry_cell_setting 'orthorhombic'
loop_
_space_group_symop_operation_xyz
x,y,z
-x,1/2-y,z
x,-y,-z
-x,1/2+y,-z
-x,-y,-z
x,1/2+y,-z
-x,y,z
x,1/2-y,z
1/2+x,1/2+y,1/2+z
1/2-x,-y,1/2+z
1/2+x,1/2-y,1/2-z
1/2-x,y,1/2-z
1/2-x,1/2-y,1/2-z
1/2+x,y,1/2-z
1/2-x,1/2+y,1/2+z
1/2+x,-y,1/2+z
loop_
_atom_site_type_symbol
_atom_site_label
_atom_site_fract_x
_atom_site_fract_y
_atom_site_fract_z
Si Si1 0.500000 0.375008 0.329444
Si Si2 0.227653 0.098762 0.862374
Si Si3 0.288279 0.317153 0.465828
Si Si4 0.500000 0.960282 0.095198
Si Si5 0.000000 0.315972 0.376115
Si Si6 0.000000 0.508493 0.179127
O O1 0.372557 0.345730 0.378737
O O2 0.500000 0.360398 0.213908
O O3 0.500000 0.442685 0.353145
O O4 0.250000 0.118973 0.750000
O O5 0.367296 0.076869 0.903182
O O6 0.179075 0.148314 0.934766
O O7 0.126530 0.045201 0.856100
O O8 0.320431 0.250000 0.474068
O O9 0.133157 0.322193 0.439314
O O10 0.500000 0.992058 0.201356
O O11 0.500000 0.000000 0.000000
O O12 0.000000 0.250000 0.335922
#
# Coordination Sequence:
#
# PCOD9540006 Si02
#       6
#     8  16  16   8   8   8
#     4  12  25  39  62  91 129 165 206 250 309 371
#     4  10  23  43  63  92 128 158 206 262 305 365
#     4  11  24  41  65  92 121 166 211 251 311 367
#     4  10  23  39  65  90 124 161 208 250 304 372
#     4  10  23  42  62  91 126 158 206 259 302 365
#     4  10  25  42  59  95 127 164 203 251 314 369
#
# _framework density 20.063054999999999
#
# number of rings (size 3 to 8) (size 9 to 14) (size 15 to 20)
#    0.000    1.500    0.000    3.375    7.000    7.500 
#    0.000    0.000    0.000    7.500    0.000    0.000 
#    0.000    0.000    0.000    0.000    0.000    0.000 
#
# Total GULP energy -178943.070353 kJ/mol
# GULP energy per Si atom -5591.970949 kJ/mol
# Density = 2.001739 g / cm^3
# Si number density = 20.063055 Si / 1000 Ang^3
#
#
#
# Elastic Constant Matrix: (Units=GPa)
#
#
# Indices 1 2 3 4 5 6 
#
# 1 99.1260 43.5822 12.8489 0.0000 0.0000 0.0000
# 2 43.5822 156.7093 73.6814 0.0000 0.0001 0.0000
# 3 12.8489 73.6814 84.6677 0.0000 0.0004 -0.0001
# 4 0.0000 0.0000 0.0000 39.5474 0.0000 0.0000
# 5 0.0000 0.0001 0.0004 0.0000 524.0055 -0.0002
# 6 0.0000 0.0000 -0.0001 0.0000 -0.0002 6.3321
#
#
#
# Elastic Compliance Matrix: (Units=1/GPa)
#
#
# Indices 1 2 3 4 5 6 
#
# 1 0.011650 -0.004077 0.001780 0.000000 0.000000 0.000000
# 2 -0.004077 0.012227 -0.010022 0.000000 0.000000 0.000000
# 3 0.001780 -0.010022 0.020262 0.000000 0.000000 0.000000
# 4 0.000000 0.000000 0.000000 0.025286 0.000000 0.000000
# 5 0.000000 0.000000 0.000000 0.000000 0.001908 0.000000
# 6 0.000000 0.000000 0.000000 0.000000 0.000000 0.157925
#
#
# Mechanical properties :
#
#
# Convention : Reuss Voigt Hill
#
# Bulk Modulus (GPa) = 51.27787 66.74756 59.01272
# Shear Modulus (GPa) = 19.20143 128.00302 73.60223
#
# Velocity S-wave (km/s) = 3.09699 7.99618 6.06342
# Velocity P-wave (km/s) = 6.19696 10.89004 8.85989
#
# Compressibility (1/GPa) = 0.01950159
#
# Stress axis : x y z
#
# Youngs Moduli (GPa) = 85.83790 81.78556 49.35288
#
# Poissons Ratio (x) = 0.33342 -0.08784
# Poissons Ratio (y) = 0.34994 0.49461
# Poissons Ratio (z) = -0.15278 0.81964
#
# Static dielectric constant tensor:
#      x y z
#    x 1.712040 0.000000 0.000000 
#    y 0.000000 1.686070 0.000000 
#    z 0.000000 0.000000 1.678990 
# 
# From -- ./inp_files/28919.got.cif
#   From: 2010.05.17/outbox.cif.g08.bks.cpg/sg74_15_cif.got.tgz:28919.got - 2010.06.03 17:57:02.
