data_PCOD9540182
_publ_section_title
;
Structure prediction by ZEFSAII (Michael W. Deem and Ramdas Pophale) SiO2 
 PCOD9540182
Probable space group: I M M A
;
_chemical_formula_sum "Si O2"
_cell_formula_units_Z 56
_cell_length_a 13.644690
_cell_length_b 14.187383
_cell_length_c 13.902531
_cell_angle_alpha 90.000000
_cell_angle_beta 90.000000
_cell_angle_gamma 90.000000
_cell_volume 2691.285914
_symmetry_space_group_name_H-M "I M M A"
_symmetry_group_IT_number 74
_symmetry_cell_setting 'orthorhombic'
loop_
_space_group_symop_operation_xyz
x,y,z
-x,1/2-y,z
x,-y,-z
-x,1/2+y,-z
-x,-y,-z
x,1/2+y,-z
-x,y,z
x,1/2-y,z
1/2+x,1/2+y,1/2+z
1/2-x,-y,1/2+z
1/2+x,1/2-y,1/2-z
1/2-x,y,1/2-z
1/2-x,1/2-y,1/2-z
1/2+x,y,1/2-z
1/2-x,1/2+y,1/2+z
1/2+x,-y,1/2+z
loop_
_atom_site_type_symbol
_atom_site_label
_atom_site_fract_x
_atom_site_fract_y
_atom_site_fract_z
Si Si1 0.000000 0.595672 0.322691
Si Si2 0.291382 0.750000 0.447421
Si Si3 0.750000 0.415103 0.250000
Si Si4 0.178392 0.250000 0.367218
Si Si5 0.203652 0.047554 0.603299
Si Si6 0.500000 0.250000 0.988079
Si Si7 0.000000 0.250000 0.844826
O O1 0.102376 0.542412 0.336836
O O2 0.000000 0.662008 0.417374
O O3 0.000000 0.660219 0.227722
O O4 0.274593 0.750000 0.563112
O O5 0.239163 0.844921 0.407531
O O6 0.402356 0.750000 0.409591
O O7 0.823551 0.341656 0.300598
O O8 0.720235 0.484181 0.336742
O O9 0.092730 0.250000 0.443716
O O10 0.189332 0.000000 0.500000
#
# Coordination Sequence:
#
# PCOD9540182 Si02
#       7
#     8   8   8   8  16   4   4
#     4  11  21  38  65 111 132 168 223 291 338 399
#     4  12  23  47  65  94 133 187 218 278 336 403
#     4  11  24  41  64 100 136 183 218 265 334 414
#     4  11  23  44  70  95 139 176 227 279 345 395
#     4  12  23  41  72 100 138 174 225 284 343 393
#     4  11  18  42  71 106 126 170 229 300 341 386
#     4  11  26  40  65  96 138 180 237 258 333 420
#
# _framework density 20.807897000000001
#
# number of rings (size 3 to 8) (size 9 to 14) (size 15 to 20)
#    0.000    0.571    5.714    3.000    0.000    2.857 
#    0.000    6.429    0.000    0.000    0.000    0.000 
#    0.000    0.000    0.000    0.000    0.000    0.000 
#
# Total GULP energy -156308.898774 kJ/mol
# GULP energy per Si atom -5582.460670 kJ/mol
# Density = 2.076054 g / cm^3
# Si number density = 20.807897 Si / 1000 Ang^3
#
#
#
# Elastic Constant Matrix: (Units=GPa)
#
#
# Indices 1 2 3 4 5 6 
#
# 1 119.3820 34.7724 57.2065 0.0000 0.0000 0.0000
# 2 34.7724 162.0454 41.5741 0.0000 0.0000 0.0000
# 3 57.2065 41.5741 105.4274 0.0000 0.0000 0.0000
# 4 0.0000 0.0000 0.0000 6.8193 0.0000 0.0000
# 5 0.0000 0.0000 0.0000 0.0000 31.5374 0.0000
# 6 0.0000 0.0000 0.0000 0.0000 0.0000 13.9066
#
#
#
# Elastic Compliance Matrix: (Units=1/GPa)
#
#
# Indices 1 2 3 4 5 6 
#
# 1 0.011453 -0.000960 -0.005836 0.000000 0.000000 0.000000
# 2 -0.000960 0.006946 -0.002218 0.000000 0.000000 0.000000
# 3 -0.005836 -0.002218 0.013526 0.000000 0.000000 0.000000
# 4 0.000000 0.000000 0.000000 0.146643 0.000000 0.000000
# 5 0.000000 0.000000 0.000000 0.000000 0.031708 0.000000
# 6 0.000000 0.000000 0.000000 0.000000 0.000000 0.071908
#
#
# Mechanical properties :
#
#
# Convention : Reuss Voigt Hill
#
# Bulk Modulus (GPa) = 71.95762 72.66233 72.30997
# Shear Modulus (GPa) = 16.40176 27.33945 21.87061
#
# Velocity S-wave (km/s) = 2.81062 3.62871 3.24554
# Velocity P-wave (km/s) = 6.72233 7.24935 6.99081
#
# Compressibility (1/GPa) = 0.01389707
#
# Stress axis : x y z
#
# Youngs Moduli (GPa) = 87.31674 143.96251 73.92973
#
# Poissons Ratio (x) = 0.13826 0.43143
# Poissons Ratio (y) = 0.08386 0.16398
# Poissons Ratio (z) = 0.50955 0.31932
#
# Static dielectric constant tensor:
#      x y z
#    x 1.756520 0.000000 0.000000 
#    y 0.000000 1.791790 0.000000 
#    z 0.000000 0.000000 1.734220 
# 
# From -- ./inp_files/29999.got.cif
#   From: 2010.05.17/outbox.cif.g08.bks.cpg/sg74_15_cif.got.tgz:29999.got - 2010.06.03 17:57:02.
