data_PCOD9540706
_publ_section_title
;
Structure prediction by ZEFSAII (Michael W. Deem and Ramdas Pophale) SiO2 
 PCOD9540706
Probable space group: I M M A
;
_chemical_formula_sum "Si O2"
_cell_formula_units_Z 64
_cell_length_a 22.955090
_cell_length_b 15.022270
_cell_length_c 7.083141
_cell_angle_alpha 90.000000
_cell_angle_beta 90.000000
_cell_angle_gamma 90.000000
_cell_volume 2442.533059
_symmetry_space_group_name_H-M "I M M A"
_symmetry_group_IT_number 74
_symmetry_cell_setting 'orthorhombic'
loop_
_space_group_symop_operation_xyz
x,y,z
-x,1/2-y,z
x,-y,-z
-x,1/2+y,-z
-x,-y,-z
x,1/2+y,-z
-x,y,z
x,1/2-y,z
1/2+x,1/2+y,1/2+z
1/2-x,-y,1/2+z
1/2+x,1/2-y,1/2-z
1/2-x,y,1/2-z
1/2-x,1/2-y,1/2-z
1/2+x,y,1/2-z
1/2-x,1/2+y,1/2+z
1/2+x,-y,1/2+z
loop_
_atom_site_type_symbol
_atom_site_label
_atom_site_fract_x
_atom_site_fract_y
_atom_site_fract_z
Si Si1 0.813645 0.645313 0.981243
Si Si2 0.937475 0.357462 0.005400
Si Si3 0.314511 0.896453 0.964196
Si Si4 0.062073 0.894256 0.544634
O O1 0.679511 0.750000 0.504543
O O2 0.874332 0.605904 0.062679
O O3 0.748131 0.627465 0.048783
O O4 0.812040 0.620955 0.759690
O O5 0.938729 0.250000 0.981834
O O6 0.937248 0.377747 0.229966
O O7 0.000000 0.393340 0.932615
O O8 0.376400 0.855513 0.027796
O O9 0.319395 0.000000 0.000000
O O10 0.000000 0.856788 0.476615
O O11 0.061368 0.000000 0.500000
#
# Coordination Sequence:
#
# PCOD9540706 Si02
#       4
#    16  16  16  16
#     4   9  16  26  39  55  74  95 121 149 177 213
#     4   8  13  21  34  51  69  89 113 143 177 208
#     4   9  15  22  34  52  72  94 119 146 176 210
#     4   8  13  20  29  43  65  90 113 138 171 211
#
# _framework density 26.202306
#
# number of rings (size 3 to 8) (size 9 to 14) (size 15 to 20)
#    0.000    3.500    0.000    1.500    0.000    1.000 
#    0.000    0.000    0.000    0.750    0.000   14.000 
#    0.000    4.000    0.000    1.500    0.000  272.000 
#
# Total GULP energy -178357.281226 kJ/mol
# GULP energy per Si atom -5573.665038 kJ/mol
# Density = 2.614267 g / cm^3
# Si number density = 26.202306 Si / 1000 Ang^3
#
#
#
# Elastic Constant Matrix: (Units=GPa)
#
#
# Indices 1 2 3 4 5 6 
#
# 1 413.6832 19.8638 17.4508 0.0000 0.0000 0.0000
# 2 19.8638 80.1871 -23.8921 0.0000 0.0000 0.0000
# 3 17.4508 -23.8921 118.2104 0.0000 0.0000 0.0000
# 4 0.0000 0.0000 0.0000 7.1019 0.0000 0.0000
# 5 0.0000 0.0000 0.0000 0.0000 -37.6639 0.0000
# 6 0.0000 0.0000 0.0000 0.0000 0.0000 37.4925
#
#
#
# Elastic Compliance Matrix: (Units=1/GPa)
#
#
# Indices 1 2 3 4 5 6 
#
# 1 0.002476 -0.000769 -0.000521 0.000000 0.000000 0.000000
# 2 -0.000769 0.013509 0.002844 0.000000 0.000000 0.000000
# 3 -0.000521 0.002844 0.009111 0.000000 0.000000 0.000000
# 4 0.000000 0.000000 0.000000 0.140807 0.000000 0.000000
# 5 0.000000 0.000000 0.000000 0.000000 -0.026551 0.000000
# 6 0.000000 0.000000 0.000000 0.000000 0.000000 0.026672
#
#
# Mechanical properties :
#
#
# Convention : Reuss Voigt Hill
#
# Bulk Modulus (GPa) = 35.45550 70.99176 53.22363
# Shear Modulus (GPa) = 29.01626 41.29665 35.15645
#
# Velocity S-wave (km/s) = 3.33136 3.97428 3.66694
# Velocity P-wave (km/s) = 5.32523 6.94352 6.18751
#
# Compressibility (1/GPa) = 0.02820437
#
# Stress axis : x y z
#
# Youngs Moduli (GPa) = 403.84657 74.02726 109.75563
#
# Poissons Ratio (x) = 0.05690 0.05717
# Poissons Ratio (y) = 0.31040 -0.31212
# Poissons Ratio (z) = 0.21036 -0.21051
#
# Static dielectric constant tensor:
#      x y z
#    x 2.325350 0.000000 0.000000 
#    y 0.000000 2.522590 0.000000 
#    z 0.000000 0.000000 1.965330 
# 
# From -- ./inp_files/8799.got.cif
#   From: 2010.05.17/outbox.cif.g08.bks.cpg/sg74_5_cif.got.tgz:8799.got - 2010.06.03 17:57:02.
