data_PCOD9540754
_publ_section_title
;
Structure prediction by ZEFSAII (Michael W. Deem and Ramdas Pophale) SiO2 
 PCOD9540754
Probable space group: I M M A
;
_chemical_formula_sum "Si O2"
_cell_formula_units_Z 112
_cell_length_a 23.927331
_cell_length_b 7.284659
_cell_length_c 30.474112
_cell_angle_alpha 90.000000
_cell_angle_beta 90.000000
_cell_angle_gamma 90.000000
_cell_volume 5311.712295
_symmetry_space_group_name_H-M "I M M A"
_symmetry_group_IT_number 74
_symmetry_cell_setting 'orthorhombic'
loop_
_space_group_symop_operation_xyz
x,y,z
-x,1/2-y,z
x,-y,-z
-x,1/2+y,-z
-x,-y,-z
x,1/2+y,-z
-x,y,z
x,1/2-y,z
1/2+x,1/2+y,1/2+z
1/2-x,-y,1/2+z
1/2+x,1/2-y,1/2-z
1/2-x,y,1/2-z
1/2-x,1/2-y,1/2-z
1/2+x,y,1/2-z
1/2-x,1/2+y,1/2+z
1/2+x,-y,1/2+z
loop_
_atom_site_type_symbol
_atom_site_label
_atom_site_fract_x
_atom_site_fract_y
_atom_site_fract_z
Si Si1 0.765078 0.473080 0.200480
Si Si2 0.662096 0.973878 0.860395
Si Si3 0.391947 0.026713 0.298905
Si Si4 0.438963 0.526103 0.609804
Si Si5 0.336908 0.531576 0.550826
Si Si6 0.789632 0.968828 0.550497
Si Si7 0.936001 0.526041 0.703508
O O1 0.764849 0.250000 0.199426
O O2 0.750000 0.527502 0.250000
O O3 0.717281 0.530995 0.166780
O O4 0.828342 0.531082 0.191411
O O5 0.661000 0.750000 0.859640
O O6 0.670173 0.033907 0.910627
O O7 0.607060 0.033142 0.834200
O O8 0.391671 0.250000 0.297670
O O9 0.430102 0.972587 0.339636
O O10 0.413102 0.967670 0.251225
O O11 0.500000 0.467826 0.593773
O O12 0.438241 0.750000 0.608473
O O13 0.386209 0.461451 0.581606
O O14 0.351044 0.500000 0.500000
O O15 0.333896 0.750000 0.558549
O O16 0.273818 0.460010 0.557446
O O17 0.786414 0.750000 0.555345
O O18 0.806105 0.000000 0.500000
O O19 0.935675 0.750000 0.703812
O O20 0.000000 0.468693 0.697184
#
# Coordination Sequence:
#
# PCOD9540754 Si02
#       7
#    16  16  16  16  16  16  16
#     4   9  13  18  29  47  71 100 131 162 197 238
#     4   9  15  23  35  53  77 105 133 163 201 241
#     4   9  14  20  30  46  72 104 135 162 192 237
#     4   9  16  24  34  50  74 106 139 167 199 239
#     4   9  17  29  43  59  79 104 135 171 208 243
#     4   9  17  29  45  63  83 106 135 170 207 246
#     4   9  15  21  30  47  74 107 136 158 189 241
#
# _framework density 21.085478999999999
#
# number of rings (size 3 to 8) (size 9 to 14) (size 15 to 20)
#    0.000    3.000    1.429    1.286    0.000    5.429 
#    0.000    0.000    0.000    0.429    0.000    0.000 
#    0.000    1.714    0.000    1.000    0.000    0.857 
#
# Total GULP energy -312666.741100 kJ/mol
# GULP energy per Si atom -5583.334663 kJ/mol
# Density = 2.103749 g / cm^3
# Si number density = 21.085479 Si / 1000 Ang^3
#
#
#
# Elastic Constant Matrix: (Units=GPa)
#
#
# Indices 1 2 3 4 5 6 
#
# 1 150.6761 3.1762 94.4235 0.0000 0.0000 0.0000
# 2 3.1762 89.7604 -1.1290 0.0000 0.0000 0.0000
# 3 94.4235 -1.1290 155.4255 0.0000 0.0000 0.0000
# 4 0.0000 0.0000 0.0000 -4.9698 0.0000 0.0000
# 5 0.0000 0.0000 0.0000 0.0000 27.4324 0.0000
# 6 0.0000 0.0000 0.0000 0.0000 0.0000 -19.7039
#
#
#
# Elastic Compliance Matrix: (Units=1/GPa)
#
#
# Indices 1 2 3 4 5 6 
#
# 1 0.010736 -0.000462 -0.006526 0.000000 0.000000 0.000000
# 2 -0.000462 0.011162 0.000362 0.000000 0.000000 0.000000
# 3 -0.006526 0.000362 0.010401 0.000000 0.000000 0.000000
# 4 0.000000 0.000000 0.000000 -0.201214 0.000000 0.000000
# 5 0.000000 0.000000 0.000000 0.000000 0.036453 0.000000
# 6 0.000000 0.000000 0.000000 0.000000 0.000000 -0.050751
#
#
# Mechanical properties :
#
#
# Convention : Reuss Voigt Hill
#
# Bulk Modulus (GPa) = 52.50203 65.42261 58.96232
# Shear Modulus (GPa) = -30.55990 20.51114 -5.02438
#
# Velocity S-wave (km/s) = -3.81114 3.12230 -1.54533
# Velocity P-wave (km/s) = 2.36374 6.64026 4.98399
#
# Compressibility (1/GPa) = 0.01904688
#
# Stress axis : x y z
#
# Youngs Moduli (GPa) = 93.14608 89.59231 96.14503
#
# Poissons Ratio (x) = 0.04139 0.62740
# Poissons Ratio (y) = 0.04303 -0.03478
# Poissons Ratio (z) = 0.60783 -0.03241
#
# Static dielectric constant tensor:
#      x y z
#    x 1.731240 0.000000 0.000000 
#    y 0.000000 1.882610 0.000000 
#    z 0.000000 0.000000 1.730660 
# 
# From -- ./inp_files/59141.got.cif
#   From: 2010.05.17/outbox.cif.g08.bks.cpg/sg74_30_cif.got.tgz:59141.got - 2010.06.03 17:57:02.
