data_PCOD9540697
_publ_section_title
;
Structure prediction by ZEFSAII (Michael W. Deem and Ramdas Pophale) SiO2 
 PCOD9540697
Probable space group: I M M A
;
_chemical_formula_sum "Si O2"
_cell_formula_units_Z 96
_cell_length_a 19.425304
_cell_length_b 14.201945
_cell_length_c 13.488463
_cell_angle_alpha 90.000000
_cell_angle_beta 90.000000
_cell_angle_gamma 90.000000
_cell_volume 3721.158043
_symmetry_space_group_name_H-M "I M M A"
_symmetry_group_IT_number 74
_symmetry_cell_setting 'orthorhombic'
loop_
_space_group_symop_operation_xyz
x,y,z
-x,1/2-y,z
x,-y,-z
-x,1/2+y,-z
-x,-y,-z
x,1/2+y,-z
-x,y,z
x,1/2-y,z
1/2+x,1/2+y,1/2+z
1/2-x,-y,1/2+z
1/2+x,1/2-y,1/2-z
1/2-x,y,1/2-z
1/2-x,1/2-y,1/2-z
1/2+x,y,1/2-z
1/2-x,1/2+y,1/2+z
1/2+x,-y,1/2+z
loop_
_atom_site_type_symbol
_atom_site_label
_atom_site_fract_x
_atom_site_fract_y
_atom_site_fract_z
Si Si1 0.224708 0.647810 0.365215
Si Si2 0.921784 0.606463 0.681693
Si Si3 0.578056 0.592712 0.400334
Si Si4 0.075210 0.620970 0.316469
Si Si5 0.271898 0.070151 0.133003
Si Si6 0.370490 0.384441 0.396705
O O1 0.252262 0.750000 0.400962
O O2 0.250000 0.643549 0.250000
O O3 0.142033 0.653462 0.371956
O O4 0.233556 0.539446 0.401614
O O5 0.925354 0.492674 0.685164
O O6 0.848336 0.615554 0.623807
O O7 0.905019 0.643753 0.792862
O O8 0.000000 0.636766 0.650966
O O9 0.500000 0.557529 0.401527
O O10 0.585471 0.647784 0.298702
O O11 0.592531 0.644002 0.502590
O O12 0.623006 0.498662 0.393926
O O13 0.000000 0.649953 0.352027
O O14 0.250000 0.066948 0.250000
O O15 0.210269 0.133379 0.091719
#
# Coordination Sequence:
#
# PCOD9540697 Si02
#       6
#    16  16  16  16  16  16
#     4   9  15  22  31  41  56  82 111 135 158 181
#     4   8  12  19  29  39  54  75  96 118 148 182
#     4   9  14  19  29  44  59  74  93 120 158 197
#     4   8  14  22  30  42  60  78  99 131 161 186
#     4   8  14  21  28  40  57  75  99 131 159 183
#     4   9  13  18  28  42  58  73  93 122 155 192
#
# _framework density 25.798421999999999
#
# number of rings (size 3 to 8) (size 9 to 14) (size 15 to 20)
#    0.000    3.500    0.000    6.000    0.000    0.333 
#    0.000    0.000    0.000    0.000    0.000    2.333 
#    0.000    1.333    0.000    0.000    0.000    7.500 
#
# Total GULP energy -267473.930471 kJ/mol
# GULP energy per Si atom -5572.373551 kJ/mol
# Density = 2.573970 g / cm^3
# Si number density = 25.798422 Si / 1000 Ang^3
#
#
#
# Elastic Constant Matrix: (Units=GPa)
#
#
# Indices 1 2 3 4 5 6 
#
# 1 220.9631 14.2022 8.7913 0.0000 0.0000 0.0000
# 2 14.2022 98.6723 12.7472 0.0000 0.0000 0.0000
# 3 8.7913 12.7472 35.0262 0.0000 0.0000 0.0000
# 4 0.0000 0.0000 0.0000 50.1616 0.0000 0.0000
# 5 0.0000 0.0000 0.0000 0.0000 18.6912 0.0000
# 6 0.0000 0.0000 0.0000 0.0000 0.0000 -19.8935
#
#
#
# Elastic Compliance Matrix: (Units=1/GPa)
#
#
# Indices 1 2 3 4 5 6 
#
# 1 0.004598 -0.000538 -0.000958 0.000000 0.000000 0.000000
# 2 -0.000538 0.010697 -0.003758 0.000000 0.000000 0.000000
# 3 -0.000958 -0.003758 0.030158 0.000000 0.000000 0.000000
# 4 0.000000 0.000000 0.000000 0.019936 0.000000 0.000000
# 5 0.000000 0.000000 0.000000 0.000000 0.053501 0.000000
# 6 0.000000 0.000000 0.000000 0.000000 0.000000 -0.050268
#
#
# Mechanical properties :
#
#
# Convention : Reuss Voigt Hill
#
# Bulk Modulus (GPa) = 28.61630 47.34922 37.98276
# Shear Modulus (GPa) = 55.07780 31.05325 43.06552
#
# Velocity S-wave (km/s) = 4.62554 3.47318 4.09015
# Velocity P-wave (km/s) = 6.29634 5.87175 6.08774
#
# Compressibility (1/GPa) = 0.03494512
#
# Stress axis : x y z
#
# Youngs Moduli (GPa) = 217.46909 93.47980 33.15838
#
# Poissons Ratio (x) = 0.05030 0.03178
# Poissons Ratio (y) = 0.11701 0.12461
# Poissons Ratio (z) = 0.20841 0.35131
#
# Static dielectric constant tensor:
#      x y z
#    x 2.019950 0.000000 0.000000 
#    y 0.000000 2.019940 0.000000 
#    z 0.000000 0.000000 2.094020 
# 
# From -- ./inp_files/53192.got.cif
#   From: 2010.05.17/outbox.cif.g08.bks.cpg/sg74_27_cif.got.tgz:53192.got - 2010.06.03 17:57:02.
