data_PCOD9540178
_publ_section_title
;
Structure prediction by ZEFSAII (Michael W. Deem and Ramdas Pophale) SiO2 
 PCOD9540178
Probable space group: I M M A
;
_chemical_formula_sum "Si O2"
_cell_formula_units_Z 92
_cell_length_a 18.050736
_cell_length_b 24.861422
_cell_length_c 12.659513
_cell_angle_alpha 90.000000
_cell_angle_beta 90.000000
_cell_angle_gamma 90.000000
_cell_volume 5681.171229
_symmetry_space_group_name_H-M "I M M A"
_symmetry_group_IT_number 74
_symmetry_cell_setting 'orthorhombic'
loop_
_space_group_symop_operation_xyz
x,y,z
-x,1/2-y,z
x,-y,-z
-x,1/2+y,-z
-x,-y,-z
x,1/2+y,-z
-x,y,z
x,1/2-y,z
1/2+x,1/2+y,1/2+z
1/2-x,-y,1/2+z
1/2+x,1/2-y,1/2-z
1/2-x,y,1/2-z
1/2-x,1/2-y,1/2-z
1/2+x,y,1/2-z
1/2-x,1/2+y,1/2+z
1/2+x,-y,1/2+z
loop_
_atom_site_type_symbol
_atom_site_label
_atom_site_fract_x
_atom_site_fract_y
_atom_site_fract_z
Si Si1 0.500000 0.948681 0.919902
Si Si2 0.846725 0.968240 0.687221
Si Si3 0.000000 0.366625 0.596725
Si Si4 0.197878 0.135818 0.904131
Si Si5 0.500000 0.250000 0.806053
Si Si6 0.154806 0.906678 0.319921
Si Si7 0.797739 0.447740 0.076441
Si Si8 0.332553 0.750000 0.314122
O O1 0.572518 0.954130 0.850514
O O2 0.500000 0.891783 0.980158
O O3 0.500000 0.000000 0.000000
O O4 0.837692 0.958456 0.811964
O O5 0.786420 0.938052 0.615738
O O6 0.830334 0.030776 0.662300
O O7 0.000000 0.303570 0.622587
O O8 0.072913 0.391425 0.648727
O O9 0.165614 0.104103 0.803484
O O10 0.286217 0.129129 0.884179
O O11 0.172249 0.196500 0.885198
O O12 0.177181 0.104109 0.009804
O O13 0.416131 0.250000 0.744924
O O14 0.802604 0.500000 0.000000
O O15 0.250000 0.750000 0.250000
#
# Coordination Sequence:
#
# PCOD9540178 Si02
#       8
#     8  16   8  16   4  16  16   8
#     4  12  22  34  55  80 116 144 177 234 289 332
#     4  11  21  34  52  86 114 146 184 225 279 344
#     4  12  22  34  55  80 112 145 181 229 288 344
#     4  11  20  33  54  80 111 146 178 228 278 333
#     4  12  24  40  58  84 116 152 192 242 300 338
#     4  11  18  31  55  83 112 143 182 221 279 351
#     4  11  19  33  57  77 109 149 187 217 272 340
#     4  12  22  38  58  84 116 146 190 246 290 340
#
# _framework density 16.193845
#
# number of rings (size 3 to 8) (size 9 to 14) (size 15 to 20)
#    0.000    0.696    8.696    2.609    0.000    0.000 
#    0.000    2.174    0.000    3.130    0.000    0.000 
#    0.000    0.000    0.000    0.000    0.000    0.000 
#
# Total GULP energy -256301.169727 kJ/mol
# GULP energy per Si atom -5571.764559 kJ/mol
# Density = 1.615699 g / cm^3
# Si number density = 16.193845 Si / 1000 Ang^3
#
#
#
# Elastic Constant Matrix: (Units=GPa)
#
#
# Indices 1 2 3 4 5 6 
#
# 1 94.8764 16.4329 41.8436 0.0000 0.0000 0.0000
# 2 16.4329 107.4185 41.2691 0.0000 0.0000 0.0000
# 3 41.8436 41.2691 91.0556 0.0000 0.0000 0.0000
# 4 0.0000 0.0000 0.0000 26.2832 0.0000 0.0000
# 5 0.0000 0.0000 0.0000 0.0000 0.7920 0.0000
# 6 0.0000 0.0000 0.0000 0.0000 0.0000 -21.4163
#
#
#
# Elastic Compliance Matrix: (Units=1/GPa)
#
#
# Indices 1 2 3 4 5 6 
#
# 1 0.013232 0.000378 -0.006252 0.000000 0.000000 0.000000
# 2 0.000378 0.011283 -0.005287 0.000000 0.000000 0.000000
# 3 -0.006252 -0.005287 0.016252 0.000000 0.000000 0.000000
# 4 0.000000 0.000000 0.000000 0.038047 0.000000 0.000000
# 5 0.000000 0.000000 0.000000 0.000000 1.262625 0.000000
# 6 0.000000 0.000000 0.000000 0.000000 0.000000 -0.046693
#
#
# Mechanical properties :
#
#
# Convention : Reuss Voigt Hill
#
# Bulk Modulus (GPa) = 54.21936 54.71575 54.46755
# Shear Modulus (GPa) = 3.77867 14.05209 8.91538
#
# Velocity S-wave (km/s) = 1.52920 2.94894 2.34891
# Velocity P-wave (km/s) = 6.05575 6.74213 6.40814
#
# Compressibility (1/GPa) = 0.01844360
#
# Stress axis : x y z
#
# Youngs Moduli (GPa) = 75.57529 88.62936 61.53252
#
# Poissons Ratio (x) = -0.03347 0.38468
# Poissons Ratio (y) = -0.02854 0.32534
# Poissons Ratio (z) = 0.47247 0.46861
#
# Static dielectric constant tensor:
#      x y z
#    x 1.585460 0.000000 0.000000 
#    y 0.000000 1.571700 0.000000 
#    z 0.000000 0.000000 1.582210 
# 
# From -- ./inp_files/22729.got.cif
#   From: 2010.05.17/outbox.cif.g08.bks.cpg/sg74_12_cif.got.tgz:22729.got - 2010.06.03 17:57:02.
