data_PCOD9540403
_publ_section_title
;
Structure prediction by ZEFSAII (Michael W. Deem and Ramdas Pophale) SiO2 
 PCOD9540403
Probable space group: I M M A
;
_chemical_formula_sum "Si O2"
_cell_formula_units_Z 52
_cell_length_a 10.303550
_cell_length_b 7.206559
_cell_length_c 29.380400
_cell_angle_alpha 90.000000
_cell_angle_beta 90.000000
_cell_angle_gamma 90.000000
_cell_volume 2181.586983
_symmetry_space_group_name_H-M "I M M A"
_symmetry_group_IT_number 74
_symmetry_cell_setting 'orthorhombic'
loop_
_space_group_symop_operation_xyz
x,y,z
-x,1/2-y,z
x,-y,-z
-x,1/2+y,-z
-x,-y,-z
x,1/2+y,-z
-x,y,z
x,1/2-y,z
1/2+x,1/2+y,1/2+z
1/2-x,-y,1/2+z
1/2+x,1/2-y,1/2-z
1/2-x,y,1/2-z
1/2-x,1/2-y,1/2-z
1/2+x,y,1/2-z
1/2-x,1/2+y,1/2+z
1/2+x,-y,1/2+z
loop_
_atom_site_type_symbol
_atom_site_label
_atom_site_fract_x
_atom_site_fract_y
_atom_site_fract_z
Si Si1 0.500000 0.523640 0.785104
Si Si2 0.000000 0.975388 0.819899
Si Si3 0.500000 0.750000 0.452277
Si Si4 0.255465 0.968566 0.548420
Si Si5 0.278833 0.974101 0.853239
O O1 0.500000 0.750000 0.784211
O O2 0.500000 0.466557 0.732754
O O3 0.625026 0.462908 0.813778
O O4 0.868408 0.036730 0.844232
O O5 0.000000 0.750000 0.820802
O O6 0.614302 0.589179 0.452640
O O7 0.288297 0.750000 0.551704
O O8 0.182511 0.019379 0.595165
O O9 0.186875 0.000000 0.500000
O O10 0.279038 0.750000 0.849848
#
# Coordination Sequence:
#
# PCOD9540403 Si02
#       5
#     8   8   4  16  16
#     4   9  16  29  51  76 111 157 193 231 290 347
#     4   9  15  26  46  79 114 145 189 243 292 339
#     4  12  22  34  56  82 116 158 186 234 292 342
#     4  11  22  35  53  83 120 150 192 236 286 337
#     4   9  18  31  49  79 116 150 190 240 285 339
#
# _framework density 23.83586
#
# number of rings (size 3 to 8) (size 9 to 14) (size 15 to 20)
#    0.000    2.154    1.538    2.769    0.000    6.154 
#    0.000    0.769    0.000    0.923    0.000   17.231 
#    0.000    0.000    0.000    0.000    0.000    0.000 
#
# Total GULP energy -144830.479765 kJ/mol
# GULP energy per Si atom -5570.403068 kJ/mol
# Density = 2.378161 g / cm^3
# Si number density = 23.835860 Si / 1000 Ang^3
#
#
#
# Elastic Constant Matrix: (Units=GPa)
#
#
# Indices 1 2 3 4 5 6 
#
# 1 64.6705 -11.7106 39.2099 0.0000 0.0000 0.0000
# 2 -11.7106 152.2212 -1.8575 0.0000 0.0000 0.0000
# 3 39.2099 -1.8575 210.3335 0.0000 0.0000 0.0000
# 4 0.0000 0.0000 0.0000 5.2655 0.0000 0.0000
# 5 0.0000 0.0000 0.0000 0.0000 -78.4449 0.0000
# 6 0.0000 0.0000 0.0000 0.0000 0.0000 -2.3213
#
#
#
# Elastic Compliance Matrix: (Units=1/GPa)
#
#
# Indices 1 2 3 4 5 6 
#
# 1 0.017695 0.001321 -0.003287 0.000000 0.000000 0.000000
# 2 0.001321 0.006669 -0.000187 0.000000 0.000000 0.000000
# 3 -0.003287 -0.000187 0.005365 0.000000 0.000000 0.000000
# 4 0.000000 0.000000 0.000000 0.189915 0.000000 0.000000
# 5 0.000000 0.000000 0.000000 0.000000 -0.012748 0.000000
# 6 0.000000 0.000000 0.000000 0.000000 0.000000 -0.430795
#
#
# Mechanical properties :
#
#
# Convention : Reuss Voigt Hill
#
# Bulk Modulus (GPa) = 39.33460 53.16767 46.25114
# Shear Modulus (GPa) = -23.68343 11.67209 -6.00567
#
# Velocity S-wave (km/s) = -3.15557 2.21529 -1.58904
# Velocity P-wave (km/s) = 1.80590 5.37564 4.00991
#
# Compressibility (1/GPa) = 0.02542291
#
# Stress axis : x y z
#
# Youngs Moduli (GPa) = 56.51260 149.95333 186.37731
#
# Poissons Ratio (x) = -0.19812 0.61263
# Poissons Ratio (y) = -0.07466 0.03493
# Poissons Ratio (z) = 0.18576 0.02810
#
# Static dielectric constant tensor:
#      x y z
#    x 1.827680 0.000000 0.000000 
#    y 0.000000 1.961180 0.000000 
#    z 0.000000 0.000000 1.947210 
# 
# From -- ./inp_files/65470.got.cif
#   From: 2010.05.17/outbox.cif.g08.bks.cpg/sg74_33_cif.got.tgz:65470.got - 2010.06.03 17:57:02.
