data_PCOD9540241
_publ_section_title
;
Structure prediction by ZEFSAII (Michael W. Deem and Ramdas Pophale) SiO2 
 PCOD9540241
Probable space group: I M M A
;
_chemical_formula_sum "Si O2"
_cell_formula_units_Z 84
_cell_length_a 20.090990
_cell_length_b 11.174462
_cell_length_c 23.245694
_cell_angle_alpha 90.000000
_cell_angle_beta 90.000000
_cell_angle_gamma 90.000000
_cell_volume 5218.797877
_symmetry_space_group_name_H-M "I M M A"
_symmetry_group_IT_number 74
_symmetry_cell_setting 'orthorhombic'
loop_
_space_group_symop_operation_xyz
x,y,z
-x,1/2-y,z
x,-y,-z
-x,1/2+y,-z
-x,-y,-z
x,1/2+y,-z
-x,y,z
x,1/2-y,z
1/2+x,1/2+y,1/2+z
1/2-x,-y,1/2+z
1/2+x,1/2-y,1/2-z
1/2-x,y,1/2-z
1/2-x,1/2-y,1/2-z
1/2+x,y,1/2-z
1/2-x,1/2+y,1/2+z
1/2+x,-y,1/2+z
loop_
_atom_site_type_symbol
_atom_site_label
_atom_site_fract_x
_atom_site_fract_y
_atom_site_fract_z
Si Si1 0.000000 0.611008 0.378023
Si Si2 0.729235 0.606958 0.160510
Si Si3 0.115402 0.750000 0.623024
Si Si4 0.000000 0.250000 0.281854
Si Si5 0.174708 0.250000 0.266477
Si Si6 0.852785 0.517315 0.229121
Si Si7 0.869041 0.003342 0.567699
Si Si8 0.500000 0.986403 0.251397
O O1 0.066046 0.579499 0.414016
O O2 0.000000 0.540785 0.317343
O O3 0.000000 0.750000 0.363486
O O4 0.735346 0.750000 0.155274
O O5 0.800663 0.551170 0.178884
O O6 0.679445 0.576407 0.213613
O O7 0.693507 0.551325 0.104619
O O8 0.178760 0.750000 0.664150
O O9 0.112871 0.630916 0.586907
O O10 0.061202 0.750000 0.673837
O O11 0.000000 0.130303 0.245111
O O12 0.250000 0.250000 0.250000
O O13 0.146367 0.125255 0.241962
O O14 0.929540 0.557915 0.223404
O O15 0.856898 0.000000 0.500000
#
# Coordination Sequence:
#
# PCOD9540241 Si02
#       8
#     8  16   8   4   8  16  16   8
#     4  12  23  36  51  78 115 148 188 223 266 320
#     4  11  22  38  53  76 108 143 183 227 276 328
#     4  12  20  36  54  74 106 139 192 223 266 313
#     4  12  16  34  52  76 110 144 174 226 270 314
#     4  12  16  30  54  78 108 139 182 227 272 328
#     4  11  20  33  55  81 108 144 181 225 281 326
#     4  12  25  39  55  78 106 151 192 233 269 317
#     4  12  20  33  54  84 112 148 181 224 273 336
#
# _framework density 16.095659999999999
#
# number of rings (size 3 to 8) (size 9 to 14) (size 15 to 20)
#    0.000    0.381    9.524    2.000    2.667    0.762 
#    0.000    0.000    0.000    0.000    0.000    0.667 
#    0.000    0.000    0.000    0.000    0.000    0.000 
#
# Total GULP energy -234298.846561 kJ/mol
# GULP energy per Si atom -5578.543966 kJ/mol
# Density = 1.605903 g / cm^3
# Si number density = 16.095660 Si / 1000 Ang^3
#
#
#
# Elastic Constant Matrix: (Units=GPa)
#
#
# Indices 1 2 3 4 5 6 
#
# 1 125.4047 5.0366 34.0168 0.0000 0.0000 0.0000
# 2 5.0366 81.0767 -2.5699 0.0000 0.0000 0.0000
# 3 34.0168 -2.5699 53.8065 0.0000 0.0000 0.0000
# 4 0.0000 0.0000 0.0000 -2.3286 0.0000 0.0000
# 5 0.0000 0.0000 0.0000 0.0000 17.5559 0.0000
# 6 0.0000 0.0000 0.0000 0.0000 0.0000 8.7322
#
#
#
# Elastic Compliance Matrix: (Units=1/GPa)
#
#
# Indices 1 2 3 4 5 6 
#
# 1 0.009676 -0.000796 -0.006155 0.000000 0.000000 0.000000
# 2 -0.000796 0.012418 0.001096 0.000000 0.000000 0.000000
# 3 -0.006155 0.001096 0.022529 0.000000 0.000000 0.000000
# 4 0.000000 0.000000 0.000000 -0.429436 0.000000 0.000000
# 5 0.000000 0.000000 0.000000 0.000000 0.056961 0.000000
# 6 0.000000 0.000000 0.000000 0.000000 0.000000 0.114518
#
#
# Mechanical properties :
#
#
# Convention : Reuss Voigt Hill
#
# Bulk Modulus (GPa) = 30.38298 37.02830 33.70564
# Shear Modulus (GPa) = -26.22564 19.71219 -3.25673
#
# Velocity S-wave (km/s) = -4.04091 3.50335 -1.42399
# Velocity P-wave (km/s) = 1.68952 6.27851 4.27582
#
# Compressibility (1/GPa) = 0.03291317
#
# Stress axis : x y z
#
# Youngs Moduli (GPa) = 103.35092 80.52683 44.38762
#
# Poissons Ratio (x) = 0.06411 0.27321
# Poissons Ratio (y) = 0.08229 -0.04867
# Poissons Ratio (z) = 0.63614 -0.08830
#
# Static dielectric constant tensor:
#      x y z
#    x 1.282310 0.000000 0.000000 
#    y 0.000000 1.598760 0.000000 
#    z 0.000000 0.000000 1.524750 
# 
# From -- ./inp_files/50744.got.cif
#   From: 2010.05.17/outbox.cif.g08.bks.cpg/sg74_26_cif.got.tgz:50744.got - 2010.06.03 17:57:02.
