data_PCOD9540565
_publ_section_title
;
Structure prediction by ZEFSAII (Michael W. Deem and Ramdas Pophale) SiO2 
 PCOD9540565
Probable space group: I M M A
;
_chemical_formula_sum "Si O2"
_cell_formula_units_Z 36
_cell_length_a 15.448988
_cell_length_b 17.476837
_cell_length_c 5.282963
_cell_angle_alpha 90.000000
_cell_angle_beta 90.000000
_cell_angle_gamma 90.000000
_cell_volume 1426.397078
_symmetry_space_group_name_H-M "I M M A"
_symmetry_group_IT_number 74
_symmetry_cell_setting 'orthorhombic'
loop_
_space_group_symop_operation_xyz
x,y,z
-x,1/2-y,z
x,-y,-z
-x,1/2+y,-z
-x,-y,-z
x,1/2+y,-z
-x,y,z
x,1/2-y,z
1/2+x,1/2+y,1/2+z
1/2-x,-y,1/2+z
1/2+x,1/2-y,1/2-z
1/2-x,y,1/2-z
1/2-x,1/2-y,1/2-z
1/2+x,y,1/2-z
1/2-x,1/2+y,1/2+z
1/2+x,-y,1/2+z
loop_
_atom_site_type_symbol
_atom_site_label
_atom_site_fract_x
_atom_site_fract_y
_atom_site_fract_z
Si Si1 0.344762 0.579651 0.767277
Si Si2 0.599445 0.340793 0.719978
Si Si3 0.000000 0.000000 0.000000
O O1 0.250000 0.543599 0.750000
O O2 0.350272 0.640382 0.536018
O O3 0.422418 0.523247 0.704491
O O4 0.361426 0.621677 0.031342
O O5 0.500000 0.371492 0.673611
O O6 0.594607 0.250000 0.756581
#
# Coordination Sequence:
#
# PCOD9540565 Si02
#       3
#    16  16   4
#     4  12  27  46  76 109 144 201 250 304 376 441
#     4  11  23  46  76 109 150 191 238 308 383 444
#     4  12  28  54  70 104 156 194 252 324 348 444
#
# _framework density 25.238416000000001
#
# number of rings (size 3 to 8) (size 9 to 14) (size 15 to 20)
#    0.000    0.444    4.444    2.667    0.000   16.000 
#    0.000    0.000    0.000    0.000    0.000    0.000 
#    0.000    0.000    0.000    0.000    0.000    0.000 
#
# Total GULP energy -100616.209975 kJ/mol
# GULP energy per Si atom -5589.789443 kJ/mol
# Density = 2.518097 g / cm^3
# Si number density = 25.238416 Si / 1000 Ang^3
#
#
#
# Elastic Constant Matrix: (Units=GPa)
#
#
# Indices 1 2 3 4 5 6 
#
# 1 243.0925 34.7906 30.7140 0.0000 0.0000 0.0000
# 2 34.7906 83.2692 47.4131 0.0000 0.0000 0.0000
# 3 30.7140 47.4131 213.4270 0.0000 0.0000 0.0000
# 4 0.0000 0.0000 0.0000 46.5995 0.0000 0.0000
# 5 0.0000 0.0000 0.0000 0.0000 7.0799 0.0000
# 6 0.0000 0.0000 0.0000 0.0000 0.0000 -58.7265
#
#
#
# Elastic Compliance Matrix: (Units=1/GPa)
#
#
# Indices 1 2 3 4 5 6 
#
# 1 0.004388 -0.001687 -0.000257 0.000000 0.000000 0.000000
# 2 -0.001687 0.014397 -0.002956 0.000000 0.000000 0.000000
# 3 -0.000257 -0.002956 0.005379 0.000000 0.000000 0.000000
# 4 0.000000 0.000000 0.000000 0.021459 0.000000 0.000000
# 5 0.000000 0.000000 0.000000 0.000000 0.141245 0.000000
# 6 0.000000 0.000000 0.000000 0.000000 0.000000 -0.017028
#
#
# Mechanical properties :
#
#
# Convention : Reuss Voigt Hill
#
# Bulk Modulus (GPa) = 69.61331 85.06937 77.34134
# Shear Modulus (GPa) = 27.11110 27.44864 27.27987
#
# Velocity S-wave (km/s) = 3.28105 3.30142 3.29125
# Velocity P-wave (km/s) = 6.48043 6.95068 6.71967
#
# Compressibility (1/GPa) = 0.01436507
#
# Stress axis : x y z
#
# Youngs Moduli (GPa) = 227.91882 69.45914 185.90998
#
# Poissons Ratio (x) = 0.11718 0.04771
# Poissons Ratio (y) = 0.38450 0.54946
# Poissons Ratio (z) = 0.05849 0.20529
#
# Static dielectric constant tensor:
#      x y z
#    x 1.971450 0.000000 0.000000 
#    y 0.000000 2.110110 0.000000 
#    z 0.000000 0.000000 1.899610 
# 
# From -- ./inp_files/1052.got.cif
#   From: 2010.05.17/outbox.cif.g08.bks.cpg/sg74_1_cif.got.tgz:1052.got - 2010.06.03 17:57:02.
