data_PCOD9540015
_publ_section_title
;
Structure prediction by ZEFSAII (Michael W. Deem and Ramdas Pophale) SiO2 
 PCOD9540015
Probable space group: I M M A
;
_chemical_formula_sum "Si O2"
_cell_formula_units_Z 104
_cell_length_a 21.025814
_cell_length_b 25.818675
_cell_length_c 9.311172
_cell_angle_alpha 90.000000
_cell_angle_beta 90.000000
_cell_angle_gamma 90.000000
_cell_volume 5054.650339
_symmetry_space_group_name_H-M "I M M A"
_symmetry_group_IT_number 74
_symmetry_cell_setting 'orthorhombic'
loop_
_space_group_symop_operation_xyz
x,y,z
-x,1/2-y,z
x,-y,-z
-x,1/2+y,-z
-x,-y,-z
x,1/2+y,-z
-x,y,z
x,1/2-y,z
1/2+x,1/2+y,1/2+z
1/2-x,-y,1/2+z
1/2+x,1/2-y,1/2-z
1/2-x,y,1/2-z
1/2-x,1/2-y,1/2-z
1/2+x,y,1/2-z
1/2-x,1/2+y,1/2+z
1/2+x,-y,1/2+z
loop_
_atom_site_type_symbol
_atom_site_label
_atom_site_fract_x
_atom_site_fract_y
_atom_site_fract_z
Si Si1 0.304716 0.250000 0.124894
Si Si2 0.613034 0.340612 0.493382
Si Si3 0.573298 0.921787 0.282772
Si Si4 0.567224 0.750000 0.690982
Si Si5 0.635520 0.000000 0.500000
Si Si6 0.675165 0.939757 0.030063
Si Si7 0.323213 0.080745 0.281298
Si Si8 0.252753 0.834631 0.081476
O O1 0.250000 0.250000 0.250000
O O2 0.371851 0.250000 0.205816
O O3 0.297427 0.199976 0.020561
O O4 0.585333 0.367265 0.635867
O O5 0.571480 0.298636 0.415214
O O6 0.632719 0.382019 0.372555
O O7 0.682536 0.319638 0.531202
O O8 0.500000 0.926525 0.238322
O O9 0.591319 0.962237 0.407739
O O10 0.623156 0.932369 0.154841
O O11 0.500000 0.750000 0.770524
O O12 0.677096 0.970566 0.620399
O O13 0.729603 0.896166 0.064198
O O14 0.647155 0.925424 0.874908
O O15 0.693750 0.000000 0.000000
O O16 0.250000 0.097319 0.250000
O O17 0.250000 0.823360 0.250000
#
# Coordination Sequence:
#
# PCOD9540015 Si02
#       8
#     8  16  16   8   8  16  16  16
#     4  12  25  46  81 106 137 180 241 302 345 421
#     4  11  23  44  71 100 135 179 228 291 347 434
#     4  11  24  44  63  91 135 186 237 283 342 422
#     4  12  26  46  76 110 142 184 234 294 362 430
#     4  10  23  40  62  88 128 182 235 280 338 402
#     4  12  25  40  63 103 144 181 230 292 357 413
#     4  11  23  37  64  99 136 171 225 287 354 413
#     4  12  24  45  72 110 142 178 234 297 372 416
#
# _framework density 20.575113000000002
#
# number of rings (size 3 to 8) (size 9 to 14) (size 15 to 20)
#    0.000    0.615    6.154    1.846    1.077    0.923 
#    0.000    3.846    0.000    0.000    0.000    0.000 
#    0.000    0.000    0.000    0.000    0.000    0.000 
#
# Total GULP energy -290195.041013 kJ/mol
# GULP energy per Si atom -5580.673866 kJ/mol
# Density = 2.052828 g / cm^3
# Si number density = 20.575113 Si / 1000 Ang^3
#
#
#
# Elastic Constant Matrix: (Units=GPa)
#
#
# Indices 1 2 3 4 5 6 
#
# 1 122.9113 32.6144 34.4786 0.0000 0.0000 0.0000
# 2 32.6144 95.3985 34.7754 0.0000 0.0000 0.0000
# 3 34.4786 34.7754 141.5423 0.0000 0.0000 0.0000
# 4 0.0000 0.0000 0.0000 279.8314 0.0000 0.0000
# 5 0.0000 0.0000 0.0000 0.0000 25.3578 0.0000
# 6 0.0000 0.0000 0.0000 0.0000 0.0000 -19.7858
#
#
#
# Elastic Compliance Matrix: (Units=1/GPa)
#
#
# Indices 1 2 3 4 5 6 
#
# 1 0.009276 -0.002579 -0.001626 0.000000 0.000000 0.000000
# 2 -0.002579 0.012230 -0.002377 0.000000 0.000000 0.000000
# 3 -0.001626 -0.002377 0.008045 0.000000 0.000000 0.000000
# 4 0.000000 0.000000 0.000000 0.003574 0.000000 0.000000
# 5 0.000000 0.000000 0.000000 0.000000 0.039436 0.000000
# 6 0.000000 0.000000 0.000000 0.000000 0.000000 -0.050541
#
#
# Mechanical properties :
#
#
# Convention : Reuss Voigt Hill
#
# Bulk Modulus (GPa) = 61.01715 62.62100 61.81907
# Shear Modulus (GPa) = 123.01601 74.27961 98.64781
#
# Velocity S-wave (km/s) = 7.74071 6.01499 6.93176
# Velocity P-wave (km/s) = 10.46955 8.87364 9.70446
#
# Compressibility (1/GPa) = 0.01638884
#
# Stress axis : x y z
#
# Youngs Moduli (GPa) = 107.80135 81.76431 124.29982
#
# Poissons Ratio (x) = 0.21084 0.20213
# Poissons Ratio (y) = 0.27797 0.29543
# Poissons Ratio (z) = 0.17530 0.19433
#
# Static dielectric constant tensor:
#      x y z
#    x 1.731430 0.000000 0.000000 
#    y 0.000000 1.850830 0.000000 
#    z 0.000000 0.000000 1.762800 
# 
# From -- ./inp_files/12840.got.cif
#   From: 2010.05.17/outbox.cif.g08.bks.cpg/sg74_7_cif.got.tgz:12840.got - 2010.06.03 17:57:02.
