data_PCOD9540083
_publ_section_title
;
Structure prediction by ZEFSAII (Michael W. Deem and Ramdas Pophale) SiO2 
 PCOD9540083
Probable space group: I M M A
;
_chemical_formula_sum "Si O2"
_cell_formula_units_Z 64
_cell_length_a 15.143586
_cell_length_b 10.749352
_cell_length_c 18.557460
_cell_angle_alpha 90.000000
_cell_angle_beta 90.000000
_cell_angle_gamma 90.000000
_cell_volume 3020.852678
_symmetry_space_group_name_H-M "I M M A"
_symmetry_group_IT_number 74
_symmetry_cell_setting 'orthorhombic'
loop_
_space_group_symop_operation_xyz
x,y,z
-x,1/2-y,z
x,-y,-z
-x,1/2+y,-z
-x,-y,-z
x,1/2+y,-z
-x,y,z
x,1/2-y,z
1/2+x,1/2+y,1/2+z
1/2-x,-y,1/2+z
1/2+x,1/2-y,1/2-z
1/2-x,y,1/2-z
1/2-x,1/2-y,1/2-z
1/2+x,y,1/2-z
1/2-x,1/2+y,1/2+z
1/2+x,-y,1/2+z
loop_
_atom_site_type_symbol
_atom_site_label
_atom_site_fract_x
_atom_site_fract_y
_atom_site_fract_z
Si Si1 0.189652 0.107143 0.445005
Si Si2 0.000000 0.601357 0.775958
Si Si3 0.693174 0.490950 0.322429
Si Si4 0.500000 0.399499 0.114693
Si Si5 0.101288 0.614849 0.055561
O O1 0.190075 0.250000 0.471857
O O2 0.247796 0.099085 0.372478
O O3 0.090109 0.069575 0.424490
O O4 0.218888 0.000000 0.500000
O O5 0.904563 0.563037 0.807195
O O6 0.000000 0.750000 0.776388
O O7 0.000000 0.548377 0.694914
O O8 0.750000 0.517091 0.250000
O O9 0.668168 0.601542 0.377802
O O10 0.500000 0.250000 0.121368
O O11 0.114048 0.750000 0.019202
O O12 0.000000 0.613121 0.083184
O O13 0.105328 0.500000 0.000000
#
# Coordination Sequence:
#
# PCOD9540083 Si02
#       5
#    16   8  16   8  16
#     4  11  24  42  66  97 132 172 221 272 328 392
#     4  11  22  39  63  95 136 173 217 276 335 394
#     4  12  24  40  67  99 133 172 220 274 338 394
#     4   9  19  39  66  93 129 171 218 274 322 382
#     4  10  23  45  69  97 133 175 220 269 326 392
#
# _framework density 21.186070999999998
#
# number of rings (size 3 to 8) (size 9 to 14) (size 15 to 20)
#    0.000    1.250    3.750    1.875    0.000    6.500 
#    0.000    0.000    0.000    1.500    0.000    0.000 
#    0.000    0.000    0.000    0.000    0.000    0.000 
#
# Total GULP energy -178415.898229 kJ/mol
# GULP energy per Si atom -5575.496820 kJ/mol
# Density = 2.113785 g / cm^3
# Si number density = 21.186071 Si / 1000 Ang^3
#
#
#
# Elastic Constant Matrix: (Units=GPa)
#
#
# Indices 1 2 3 4 5 6 
#
# 1 183.3026 22.9375 53.8952 0.0000 0.0000 0.0000
# 2 22.9375 129.6744 56.0526 0.0000 0.0000 0.0000
# 3 53.8952 56.0526 112.7218 0.0000 0.0000 0.0000
# 4 0.0000 0.0000 0.0000 23.3122 0.0000 0.0000
# 5 0.0000 0.0000 0.0000 0.0000 51.7200 0.0000
# 6 0.0000 0.0000 0.0000 0.0000 0.0000 68.3573
#
#
#
# Elastic Compliance Matrix: (Units=1/GPa)
#
#
# Indices 1 2 3 4 5 6 
#
# 1 0.006354 0.000241 -0.003158 0.000000 0.000000 0.000000
# 2 0.000241 0.009832 -0.005004 0.000000 0.000000 0.000000
# 3 -0.003158 -0.005004 0.012870 0.000000 0.000000 0.000000
# 4 0.000000 0.000000 0.000000 0.042896 0.000000 0.000000
# 5 0.000000 0.000000 0.000000 0.000000 0.019335 0.000000
# 6 0.000000 0.000000 0.000000 0.000000 0.000000 0.014629
#
#
# Mechanical properties :
#
#
# Convention : Reuss Voigt Hill
#
# Bulk Modulus (GPa) = 75.68088 76.82993 76.25540
# Shear Modulus (GPa) = 39.63147 48.19879 43.91513
#
# Velocity S-wave (km/s) = 4.32978 4.77489 4.55777
# Velocity P-wave (km/s) = 7.79715 8.16961 7.98555
#
# Compressibility (1/GPa) = 0.01321338
#
# Stress axis : x y z
#
# Youngs Moduli (GPa) = 157.38729 101.70661 77.70142
#
# Poissons Ratio (x) = -0.02452 0.24536
# Poissons Ratio (y) = -0.03794 0.38886
# Poissons Ratio (z) = 0.49699 0.50899
#
# Static dielectric constant tensor:
#      x y z
#    x 1.839910 0.000000 0.000000 
#    y 0.000000 1.771400 0.000000 
#    z 0.000000 0.000000 1.811640 
# 
# From -- ./inp_files/42263.got.cif
#   From: 2010.05.17/outbox.cif.g08.bks.cpg/sg74_22_cif.got.tgz:42263.got - 2010.06.03 17:57:02.
