data_PCOD9540011
_publ_section_title
;
Structure prediction by ZEFSAII (Michael W. Deem and Ramdas Pophale) SiO2 
 PCOD9540011
Probable space group: I M M A
;
_chemical_formula_sum "Si O2"
_cell_formula_units_Z 100
_cell_length_a 8.074000
_cell_length_b 22.435011
_cell_length_c 27.476508
_cell_angle_alpha 90.000000
_cell_angle_beta 90.000000
_cell_angle_gamma 90.000000
_cell_volume 4977.102320
_symmetry_space_group_name_H-M "I M M A"
_symmetry_group_IT_number 74
_symmetry_cell_setting 'orthorhombic'
loop_
_space_group_symop_operation_xyz
x,y,z
-x,1/2-y,z
x,-y,-z
-x,1/2+y,-z
-x,-y,-z
x,1/2+y,-z
-x,y,z
x,1/2-y,z
1/2+x,1/2+y,1/2+z
1/2-x,-y,1/2+z
1/2+x,1/2-y,1/2-z
1/2-x,y,1/2-z
1/2-x,1/2-y,1/2-z
1/2+x,y,1/2-z
1/2-x,1/2+y,1/2+z
1/2+x,-y,1/2+z
loop_
_atom_site_type_symbol
_atom_site_label
_atom_site_fract_x
_atom_site_fract_y
_atom_site_fract_z
Si Si1 0.307451 0.579560 0.903906
Si Si2 0.697939 0.250000 0.837853
Si Si3 0.000000 0.750000 0.789379
Si Si4 0.692799 0.313879 0.170145
Si Si5 0.302486 0.877239 0.491178
Si Si6 0.803538 0.378701 0.803359
Si Si7 0.199580 0.250000 0.549096
Si Si8 0.305061 0.052731 0.602864
O O1 0.500000 0.564814 0.899157
O O2 0.271669 0.630761 0.864394
O O3 0.212739 0.517985 0.896322
O O4 0.274131 0.604877 0.957491
O O5 0.500000 0.250000 0.837706
O O6 0.757288 0.309941 0.812066
O O7 0.754569 0.250000 0.894281
O O8 0.849338 0.698981 0.794939
O O9 0.500000 0.318075 0.189482
O O10 0.691268 0.250000 0.141452
O O11 0.500000 0.885355 0.495885
O O12 0.264139 0.809521 0.476529
O O13 0.237315 0.918707 0.446984
O O14 0.750000 0.398811 0.750000
O O15 0.733131 0.416533 0.848723
O O16 0.000000 0.383608 0.804541
O O17 0.000000 0.250000 0.547998
O O18 0.500000 0.067557 0.601991
#
# Coordination Sequence:
#
# PCOD9540011 Si02
#       8
#    16   8   4  16  16  16   8  16
#     4  11  23  36  54  79 111 148 190 237 283 336
#     4  11  22  38  62  88 114 150 193 244 302 355
#     4   8  14  26  52  66  96 146 164 230 282 312
#     4   8  17  30  45  73 102 132 181 227 269 325
#     4  11  23  38  56  78 108 151 195 236 286 342
#     4  11  23  41  63  88 116 148 191 245 300 355
#     4  11  23  37  57  82 114 151 196 248 294 342
#     4  10  23  40  57  79 110 147 190 236 283 350
#
# _framework density 20.092013000000001
#
# number of rings (size 3 to 8) (size 9 to 14) (size 15 to 20)
#    0.480    1.280    1.600    2.640    3.360    5.120 
#    0.000    0.000    0.000    0.000    0.000    0.000 
#    0.000    0.640    0.000    3.200    0.160    5.920 
#
# Total GULP energy -278416.571157 kJ/mol
# GULP energy per Si atom -5568.331423 kJ/mol
# Density = 2.004628 g / cm^3
# Si number density = 20.092013 Si / 1000 Ang^3
#
#
#
# Elastic Constant Matrix: (Units=GPa)
#
#
# Indices 1 2 3 4 5 6 
#
# 1 60.7780 -2.3261 27.1603 0.0000 0.0000 0.0000
# 2 -2.3261 84.6750 29.7675 0.0000 0.0000 0.0000
# 3 27.1603 29.7675 95.4881 0.0000 0.0000 0.0000
# 4 0.0000 0.0000 0.0000 11.8014 0.0000 0.0000
# 5 0.0000 0.0000 0.0000 0.0000 22.5328 0.0000
# 6 0.0000 0.0000 0.0000 0.0000 0.0000 15.0319
#
#
#
# Elastic Compliance Matrix: (Units=1/GPa)
#
#
# Indices 1 2 3 4 5 6 
#
# 1 0.019415 0.002779 -0.006389 0.000000 0.000000 0.000000
# 2 0.002779 0.013661 -0.005049 0.000000 0.000000 0.000000
# 3 -0.006389 -0.005049 0.013864 0.000000 0.000000 0.000000
# 4 0.000000 0.000000 0.000000 0.084735 0.000000 0.000000
# 5 0.000000 0.000000 0.000000 0.000000 0.044380 0.000000
# 6 0.000000 0.000000 0.000000 0.000000 0.000000 0.066525
#
#
# Mechanical properties :
#
#
# Convention : Reuss Voigt Hill
#
# Bulk Modulus (GPa) = 33.75834 38.90495 36.33165
# Shear Modulus (GPa) = 18.53422 22.29586 20.41504
#
# Velocity S-wave (km/s) = 3.04051 3.33481 3.19106
# Velocity P-wave (km/s) = 5.40043 5.85093 5.63019
#
# Compressibility (1/GPa) = 0.02962231
#
# Stress axis : x y z
#
# Youngs Moduli (GPa) = 51.50755 73.19953 72.13058
#
# Poissons Ratio (x) = -0.20344 0.46082
# Poissons Ratio (y) = -0.14315 0.36421
# Poissons Ratio (z) = 0.32906 0.36961
#
# Static dielectric constant tensor:
#      x y z
#    x 1.725950 0.000000 0.000000 
#    y 0.000000 1.661580 0.000000 
#    z 0.000000 0.000000 1.742440 
# 
# From -- ./inp_files/64575.got.cif
#   From: 2010.05.17/outbox.cif.g08.bks.cpg/sg74_33_cif.got.tgz:64575.got - 2010.06.03 17:57:02.
