data_PCOD9540631
_publ_section_title
;
Structure prediction by ZEFSAII (Michael W. Deem and Ramdas Pophale) SiO2 
 PCOD9540631
Probable space group: I M M A
;
_chemical_formula_sum "Si O2"
_cell_formula_units_Z 80
_cell_length_a 19.886202
_cell_length_b 14.430553
_cell_length_c 17.868999
_cell_angle_alpha 90.000000
_cell_angle_beta 90.000000
_cell_angle_gamma 90.000000
_cell_volume 5127.846843
_symmetry_space_group_name_H-M "I M M A"
_symmetry_group_IT_number 74
_symmetry_cell_setting 'orthorhombic'
loop_
_space_group_symop_operation_xyz
x,y,z
-x,1/2-y,z
x,-y,-z
-x,1/2+y,-z
-x,-y,-z
x,1/2+y,-z
-x,y,z
x,1/2-y,z
1/2+x,1/2+y,1/2+z
1/2-x,-y,1/2+z
1/2+x,1/2-y,1/2-z
1/2-x,y,1/2-z
1/2-x,1/2-y,1/2-z
1/2+x,y,1/2-z
1/2-x,1/2+y,1/2+z
1/2+x,-y,1/2+z
loop_
_atom_site_type_symbol
_atom_site_label
_atom_site_fract_x
_atom_site_fract_y
_atom_site_fract_z
Si Si1 0.252564 0.859874 0.625285
Si Si2 0.500000 0.142378 0.427172
Si Si3 0.783070 0.000000 0.000000
Si Si4 0.138644 0.358856 0.248973
Si Si5 0.112605 0.356296 0.947494
Si Si6 0.000000 0.545907 0.769502
Si Si7 0.500000 0.146369 0.678735
O O1 0.255579 0.750000 0.604947
O O2 0.191460 0.871472 0.683664
O O3 0.320785 0.881627 0.672430
O O4 0.245921 0.929472 0.556018
O O5 0.500000 0.250000 0.401469
O O6 0.564451 0.129379 0.480363
O O7 0.500000 0.074350 0.357650
O O8 0.830114 0.067747 0.950796
O O9 0.122700 0.250000 0.244162
O O10 0.069558 0.412649 0.260135
O O11 0.137593 0.250000 0.951071
O O12 0.064471 0.363472 0.875708
O O13 0.000000 0.435888 0.763083
O O14 0.500000 0.250000 0.709845
#
# Coordination Sequence:
#
# PCOD9540631 Si02
#       7
#    16   8   8  16  16   8   8
#     4   9  19  33  46  66  98 125 144 181 235 275
#     4   9  16  24  36  62  95 114 134 177 227 267
#     4  12  18  25  46  65  82 118 164 190 210 262
#     4   9  18  32  48  69  96 119 144 186 236 276
#     4   9  17  26  36  58  92 121 143 173 213 259
#     4  12  18  25  48  69  80 111 159 188 212 266
#     4   9  18  28  36  56  93 124 143 171 211 257
#
# _framework density 15.601089
#
# number of rings (size 3 to 8) (size 9 to 14) (size 15 to 20)
#    0.000    2.400    0.000    7.500    0.000    4.800 
#    0.000    0.000    0.000    3.000    0.000    9.800 
#    0.000    0.000    0.000    0.000    0.000    0.000 
#
# Total GULP energy -223097.546893 kJ/mol
# GULP energy per Si atom -5577.438672 kJ/mol
# Density = 1.556558 g / cm^3
# Si number density = 15.601089 Si / 1000 Ang^3
#
#
#
# Elastic Constant Matrix: (Units=GPa)
#
#
# Indices 1 2 3 4 5 6 
#
# 1 67.5127 36.4059 18.8892 0.0000 0.0000 0.0000
# 2 36.4059 88.1288 35.5413 0.0000 0.0000 0.0000
# 3 18.8892 35.5413 44.2202 0.0000 0.0000 0.0000
# 4 0.0000 0.0000 0.0000 28.2143 0.0000 0.0000
# 5 0.0000 0.0000 0.0000 0.0000 9.9081 0.0000
# 6 0.0000 0.0000 0.0000 0.0000 0.0000 9.4700
#
#
#
# Elastic Compliance Matrix: (Units=1/GPa)
#
#
# Indices 1 2 3 4 5 6 
#
# 1 0.019275 -0.006868 -0.002713 0.000000 0.000000 0.000000
# 2 -0.006868 0.019236 -0.012527 0.000000 0.000000 0.000000
# 3 -0.002713 -0.012527 0.033842 0.000000 0.000000 0.000000
# 4 0.000000 0.000000 0.000000 0.035443 0.000000 0.000000
# 5 0.000000 0.000000 0.000000 0.000000 0.100927 0.000000
# 6 0.000000 0.000000 0.000000 0.000000 0.000000 0.105597
#
#
# Mechanical properties :
#
#
# Convention : Reuss Voigt Hill
#
# Bulk Modulus (GPa) = 35.54213 42.39272 38.96743
# Shear Modulus (GPa) = 13.59010 16.78684 15.18847
#
# Velocity S-wave (km/s) = 2.95464 3.28381 3.12356
# Velocity P-wave (km/s) = 5.87121 6.45056 6.16770
#
# Compressibility (1/GPa) = 0.02813562
#
# Stress axis : x y z
#
# Youngs Moduli (GPa) = 51.88117 51.98518 29.54951
#
# Poissons Ratio (x) = 0.35704 0.08018
# Poissons Ratio (y) = 0.35633 0.37017
# Poissons Ratio (z) = 0.14077 0.65122
#
# Static dielectric constant tensor:
#      x y z
#    x 1.523030 0.000000 0.000000 
#    y 0.000000 1.551710 0.000000 
#    z 0.000000 0.000000 1.515060 
# 
# From -- ./inp_files/52989.got.cif
#   From: 2010.05.17/outbox.cif.g08.bks.cpg/sg74_27_cif.got.tgz:52989.got - 2010.06.03 17:57:02.
