data_PCOD9540966
_publ_section_title
;
Structure prediction by ZEFSAII (Michael W. Deem and Ramdas Pophale) SiO2 
 PCOD9540966
Probable space group: I M M A
;
_chemical_formula_sum "Si O2"
_cell_formula_units_Z 56
_cell_length_a 15.000000
_cell_length_b 30.000000
_cell_length_c 12.000000
_cell_angle_alpha 90.000000
_cell_angle_beta 90.000000
_cell_angle_gamma 90.000000
_cell_volume 5400.000000
_symmetry_space_group_name_H-M "I M M A"
_symmetry_group_IT_number 74
_symmetry_cell_setting 'orthorhombic'
loop_
_space_group_symop_operation_xyz
x,y,z
-x,1/2-y,z
x,-y,-z
-x,1/2+y,-z
-x,-y,-z
x,1/2+y,-z
-x,y,z
x,1/2-y,z
1/2+x,1/2+y,1/2+z
1/2-x,-y,1/2+z
1/2+x,1/2-y,1/2-z
1/2-x,y,1/2-z
1/2-x,1/2-y,1/2-z
1/2+x,y,1/2-z
1/2-x,1/2+y,1/2+z
1/2+x,-y,1/2+z
loop_
_atom_site_type_symbol
_atom_site_label
_atom_site_fract_x
_atom_site_fract_y
_atom_site_fract_z
Si Si1 0.600884 0.434336 0.020536
Si Si2 0.102516 0.149971 0.921150
Si Si3 0.102220 0.158274 0.342862
Si Si4 0.602552 0.596913 0.643432
Si Si5 0.892957 0.373925 0.668979
Si Si6 0.262250 0.516282 0.625974
Si Si7 0.216258 0.698324 0.470427
O O1 0.500000 0.450547 0.014511
O O2 0.600567 0.387517 0.086364
O O3 0.665447 0.466015 0.088117
O O4 0.633542 0.418982 0.897562
O O5 0.122272 0.128579 0.800577
O O6 0.180804 0.184111 0.954028
O O7 0.000000 0.167847 0.918329
O O8 0.104917 0.112597 0.016161
O O9 0.124725 0.140015 0.219990
O O10 0.174024 0.188303 0.407169
O O11 0.000000 0.176471 0.343661
O O12 0.500000 0.584257 0.672784
O O13 0.672069 0.557316 0.656282
O O14 0.840757 0.333058 0.612534
O O15 0.000000 0.369243 0.650223
O O16 0.296079 0.500000 0.500000
O O17 0.250000 0.493066 0.750000
O O18 0.204924 0.750000 0.444109
#
# Coordination Sequence:
#
# PCOD9540966 Si02
#       7
#    16  16  16  16  16  16  16
#     4   9  18  37  64  86 111 157 211 254 291 344
#     4  10  22  37  56  85 118 160 208 250 302 369
#     4   9  18  36  64  88 107 148 209 259 298 351
#     4  10  21  41  67  86 110 154 204 252 302 362
#     4   9  19  36  59  88 117 153 209 263 304 356
#     4  12  26  40  60  93 131 163 196 244 310 378
#     4  11  22  34  55  87 121 158 201 258 316 360
#
# _framework density 10.370369999999999
#
# number of rings (size 3 to 8) (size 9 to 14) (size 15 to 20)
#    0.000    2.000    1.429    3.429    0.000    4.286 
#    0.000    2.857    0.000    2.571    0.000    0.000 
#    0.000    0.000    0.000    0.000    0.000    0.000 
#
# Total GULP energy -312281.983515 kJ/mol
# GULP energy per Si atom -5576.463991 kJ/mol
# Density = 1.034677 g / cm^3
# Si number density = 10.370370 Si / 1000 Ang^3
#
#
#
# Elastic Constant Matrix: (Units=GPa)
#
#
# Indices 1 2 3 4 5 6 
#
# 1 82.9184 20.7729 49.9756 0.0000 0.0000 0.0000
# 2 20.7729 38.5235 34.8668 0.0000 0.0000 0.0000
# 3 49.9756 34.8668 154.5433 -0.0002 -0.0001 -0.0001
# 4 0.0000 0.0000 -0.0002 14.2326 -0.0001 -0.0001
# 5 0.0000 0.0000 -0.0001 -0.0001 25.3741 0.0000
# 6 0.0000 0.0000 -0.0001 -0.0001 0.0000 -4.8704
#
#
#
# Elastic Compliance Matrix: (Units=1/GPa)
#
#
# Indices 1 2 3 4 5 6 
#
# 1 0.015670 -0.004855 -0.003972 0.000000 0.000000 0.000000
# 2 -0.004855 0.034123 -0.006129 0.000000 0.000000 0.000000
# 3 -0.003972 -0.006129 0.009138 0.000000 0.000000 0.000000
# 4 0.000000 0.000000 0.000000 0.070261 0.000000 -0.000001
# 5 0.000000 0.000000 0.000000 0.000000 0.039410 0.000000
# 6 0.000000 0.000000 0.000000 -0.000001 0.000000 -0.205323
#
#
# Mechanical properties :
#
#
# Convention : Reuss Voigt Hill
#
# Bulk Modulus (GPa) = 34.45897 54.13511 44.29704
# Shear Modulus (GPa) = 1745.71670 18.30525 882.01098
#
# Velocity S-wave (km/s) = 29.04328 2.97404 20.64409
# Velocity P-wave (km/s) = 33.78362 6.16042 24.28254
#
# Compressibility (1/GPa) = 0.02902002
#
# Stress axis : x y z
#
# Youngs Moduli (GPa) = 63.81502 29.30587 109.43493
#
# Poissons Ratio (x) = 0.14227 0.43469
# Poissons Ratio (y) = 0.30981 0.67068
# Poissons Ratio (z) = 0.25348 0.17960
#
# Static dielectric constant tensor:
#      x y z
#    x 1.763530 0.000000 0.000000 
#    y 0.000000 1.739670 0.000000 
#    z 0.000000 0.000000 1.821860 
# 
# From -- ./inp_files/21127.got.cif
#   From: 2010.05.17/outbox.ucp.g08.bks.cvg/sg74_11_cif.got.tgz:21127.got - 2010.06.11 16:37:44.
