data_PCOD9540219
_publ_section_title
;
Structure prediction by ZEFSAII (Michael W. Deem and Ramdas Pophale) SiO2 
 PCOD9540219
Probable space group: I M M A
;
_chemical_formula_sum "Si O2"
_cell_formula_units_Z 116
_cell_length_a 7.644649
_cell_length_b 27.995421
_cell_length_c 27.714631
_cell_angle_alpha 90.000000
_cell_angle_beta 90.000000
_cell_angle_gamma 90.000000
_cell_volume 5931.351386
_symmetry_space_group_name_H-M "I M M A"
_symmetry_group_IT_number 74
_symmetry_cell_setting 'orthorhombic'
loop_
_space_group_symop_operation_xyz
x,y,z
-x,1/2-y,z
x,-y,-z
-x,1/2+y,-z
-x,-y,-z
x,1/2+y,-z
-x,y,z
x,1/2-y,z
1/2+x,1/2+y,1/2+z
1/2-x,-y,1/2+z
1/2+x,1/2-y,1/2-z
1/2-x,y,1/2-z
1/2-x,1/2-y,1/2-z
1/2+x,y,1/2-z
1/2-x,1/2+y,1/2+z
1/2+x,-y,1/2+z
loop_
_atom_site_type_symbol
_atom_site_label
_atom_site_fract_x
_atom_site_fract_y
_atom_site_fract_z
Si Si1 0.790686 0.071383 0.825237
Si Si2 0.198512 0.878600 0.508067
Si Si3 0.500000 0.750000 0.288739
Si Si4 0.290275 0.541682 0.434803
Si Si5 0.292447 0.061651 0.405167
Si Si6 0.201773 0.323731 0.680841
Si Si7 0.709589 0.534017 0.698064
Si Si8 0.712589 0.195586 0.930911
O O1 0.759384 0.065803 0.882754
O O2 0.709416 0.120301 0.806657
O O3 0.000000 0.074452 0.818256
O O4 0.724838 0.020984 0.804119
O O5 0.207296 0.926454 0.475924
O O6 0.266138 0.893322 0.560491
O O7 0.281961 0.838758 0.473092
O O8 0.000000 0.863747 0.515685
O O9 0.345908 0.708384 0.293610
O O10 0.500000 0.541366 0.443834
O O11 0.226079 0.487310 0.430007
O O12 0.500000 0.054549 0.402136
O O13 0.226584 0.061212 0.349989
O O14 0.252230 0.320215 0.623704
O O15 0.000000 0.306447 0.686591
O O16 0.500000 0.530856 0.694654
O O17 0.750000 0.555483 0.750000
O O18 0.500000 0.194649 0.933005
O O19 0.771170 0.250000 0.937023
#
# Coordination Sequence:
#
# PCOD9540219 Si02
#       8
#    16  16   4  16  16  16  16  16
#     4   9  17  31  49  72  98 127 163 207 250 299
#     4  11  20  28  43  67  95 128 166 206 243 280
#     4  12  22  32  48  70 102 130 176 220 264 294
#     4   9  17  29  46  62  91 134 167 192 236 289
#     4   9  19  34  46  65  95 132 163 194 239 299
#     4  11  20  32  49  70  99 133 171 215 260 303
#     4   9  19  35  55  75 100 126 159 202 251 302
#     4   9  18  32  45  62  94 131 172 213 250 289
#
# _framework density 19.557093999999999
#
# number of rings (size 3 to 8) (size 9 to 14) (size 15 to 20)
#    0.000    2.345    2.759    2.690    0.000    3.310 
#    1.241    2.759    0.000    0.000    0.000    0.483 
#    0.000    0.552    0.000    1.241    0.000    1.931 
#
# Total GULP energy -323283.654525 kJ/mol
# GULP energy per Si atom -5573.856112 kJ/mol
# Density = 1.951258 g / cm^3
# Si number density = 19.557094 Si / 1000 Ang^3
#
#
#
# Elastic Constant Matrix: (Units=GPa)
#
#
# Indices 1 2 3 4 5 6 
#
# 1 63.2918 12.3942 13.4051 0.0000 0.0000 0.0000
# 2 12.3942 58.2330 55.4740 0.0000 0.0000 0.0000
# 3 13.4051 55.4740 118.4598 0.0000 0.0000 0.0000
# 4 0.0000 0.0000 0.0000 -0.4006 0.0000 0.0000
# 5 0.0000 0.0000 0.0000 0.0000 17.3482 0.0000
# 6 0.0000 0.0000 0.0000 0.0000 0.0000 7.1075
#
#
#
# Elastic Compliance Matrix: (Units=1/GPa)
#
#
# Indices 1 2 3 4 5 6 
#
# 1 0.016498 -0.003129 -0.000402 0.000000 0.000000 0.000000
# 2 -0.003129 0.031596 -0.014442 0.000000 0.000000 0.000000
# 3 -0.000402 -0.014442 0.015250 0.000000 0.000000 0.000000
# 4 0.000000 0.000000 0.000000 -2.496048 0.000000 0.000000
# 5 0.000000 0.000000 0.000000 0.000000 0.057643 0.000000
# 6 0.000000 0.000000 0.000000 0.000000 0.000000 0.140697
#
#
# Mechanical properties :
#
#
# Convention : Reuss Voigt Hill
#
# Bulk Modulus (GPa) = 36.49774 44.72569 40.61171
# Shear Modulus (GPa) = -2.28385 15.39175 6.55395
#
# Velocity S-wave (km/s) = -1.08181 2.80842 1.83261
# Velocity P-wave (km/s) = 4.14032 5.78232 5.02879
#
# Compressibility (1/GPa) = 0.02739896
#
# Stress axis : x y z
#
# Youngs Moduli (GPa) = 60.61487 31.64925 65.57201
#
# Poissons Ratio (x) = 0.09902 0.02635
# Poissons Ratio (y) = 0.18964 0.94701
# Poissons Ratio (z) = 0.02436 0.45709
#
# Static dielectric constant tensor:
#      x y z
#    x 1.725600 0.000000 0.000000 
#    y 0.000000 1.687640 0.000000 
#    z 0.000000 0.000000 1.755090 
# 
# From -- ./inp_files/71060.got.cif
#   From: 2010.05.17/outbox.cif.g08.bks.cpg/sg74_36_cif.got.tgz:71060.got - 2010.06.03 17:57:02.
