data_PCOD9540514
_publ_section_title
;
Structure prediction by ZEFSAII (Michael W. Deem and Ramdas Pophale) SiO2 
 PCOD9540514
Probable space group: I M M A
;
_chemical_formula_sum "Si O2"
_cell_formula_units_Z 68
_cell_length_a 16.925753
_cell_length_b 21.918051
_cell_length_c 7.277786
_cell_angle_alpha 90.000000
_cell_angle_beta 90.000000
_cell_angle_gamma 90.000000
_cell_volume 2699.909539
_symmetry_space_group_name_H-M "I M M A"
_symmetry_group_IT_number 74
_symmetry_cell_setting 'orthorhombic'
loop_
_space_group_symop_operation_xyz
x,y,z
-x,1/2-y,z
x,-y,-z
-x,1/2+y,-z
-x,-y,-z
x,1/2+y,-z
-x,y,z
x,1/2-y,z
1/2+x,1/2+y,1/2+z
1/2-x,-y,1/2+z
1/2+x,1/2-y,1/2-z
1/2-x,y,1/2-z
1/2-x,1/2-y,1/2-z
1/2+x,y,1/2-z
1/2-x,1/2+y,1/2+z
1/2+x,-y,1/2+z
loop_
_atom_site_type_symbol
_atom_site_label
_atom_site_fract_x
_atom_site_fract_y
_atom_site_fract_z
Si Si1 0.000000 0.250000 0.769341
Si Si2 0.156767 0.519599 0.286929
Si Si3 0.411489 0.895335 0.777900
Si Si4 0.216653 0.818516 0.542407
Si Si5 0.617722 0.645379 0.386486
O O1 0.931167 0.303661 0.781416
O O2 0.144141 0.500000 0.500000
O O3 0.250000 0.526197 0.250000
O O4 0.126176 0.457155 0.196974
O O5 0.113594 0.579162 0.209336
O O6 0.500000 0.905690 0.846286
O O7 0.355223 0.865352 0.931271
O O8 0.414051 0.853402 0.596685
O O9 0.192176 0.750000 0.495576
O O10 0.250000 0.817055 0.750000
O O11 0.289694 0.839307 0.418091
#
# Coordination Sequence:
#
# PCOD9540514 Si02
#       5
#     4  16  16  16  16
#     4  12  24  44  76 118 142 200 242 310 358 458
#     4  12  26  48  76 105 143 195 251 310 377 442
#     4  11  23  38  68 112 151 199 252 302 362 432
#     4   9  18  35  64 103 148 198 246 299 359 431
#     4  11  23  43  75 107 150 194 251 302 365 447
#
# _framework density 25.186029000000001
#
# number of rings (size 3 to 8) (size 9 to 14) (size 15 to 20)
#    0.000    1.176    2.353    5.647    3.294    1.882 
#    0.000    0.588    2.588    1.412    0.000    0.000 
#    0.000    0.000    0.000    0.000    0.000    0.000 
#
# Total GULP energy -189778.238166 kJ/mol
# GULP energy per Si atom -5581.712887 kJ/mol
# Density = 2.512870 g / cm^3
# Si number density = 25.186029 Si / 1000 Ang^3
#
#
#
# Elastic Constant Matrix: (Units=GPa)
#
#
# Indices 1 2 3 4 5 6 
#
# 1 180.8279 88.2061 18.6371 0.0000 0.0000 0.0000
# 2 88.2061 206.1812 8.9449 0.0000 0.0000 0.0000
# 3 18.6371 8.9449 81.3405 0.0000 0.0000 0.0000
# 4 0.0000 0.0000 0.0000 22.9307 0.0000 0.0000
# 5 0.0000 0.0000 0.0000 0.0000 9.5812 0.0000
# 6 0.0000 0.0000 0.0000 0.0000 0.0000 33.6392
#
#
#
# Elastic Compliance Matrix: (Units=1/GPa)
#
#
# Indices 1 2 3 4 5 6 
#
# 1 0.007123 -0.002991 -0.001303 0.000000 0.000000 0.000000
# 2 -0.002991 0.006129 0.000011 0.000000 0.000000 0.000000
# 3 -0.001303 0.000011 0.012591 0.000000 0.000000 0.000000
# 4 0.000000 0.000000 0.000000 0.043610 0.000000 0.000000
# 5 0.000000 0.000000 0.000000 0.000000 0.104371 0.000000
# 6 0.000000 0.000000 0.000000 0.000000 0.000000 0.029727
#
#
# Mechanical properties :
#
#
# Convention : Reuss Voigt Hill
#
# Bulk Modulus (GPa) = 57.87652 77.76952 67.82302
# Shear Modulus (GPa) = 22.94875 36.73433 29.84154
#
# Velocity S-wave (km/s) = 3.02183 3.82320 3.44589
# Velocity P-wave (km/s) = 5.93336 7.10171 6.54366
#
# Compressibility (1/GPa) = 0.01727816
#
# Stress axis : x y z
#
# Youngs Moduli (GPa) = 140.38303 163.15488 79.41950
#
# Poissons Ratio (x) = 0.48798 0.10350
# Poissons Ratio (y) = 0.41987 -0.00090
# Poissons Ratio (z) = 0.18295 -0.00184
#
# Static dielectric constant tensor:
#      x y z
#    x 1.934430 0.000000 0.000000 
#    y 0.000000 2.005500 0.000000 
#    z 0.000000 0.000000 2.103660 
# 
# From -- ./inp_files/10427.got.cif
#   From: 2010.05.17/outbox.cif.g08.bks.cpg/sg74_6_cif.got.tgz:10427.got - 2010.06.03 17:57:02.
