data_PCOD9540672
_publ_section_title
;
Structure prediction by ZEFSAII (Michael W. Deem and Ramdas Pophale) SiO2 
 PCOD9540672
Probable space group: I M M A
;
_chemical_formula_sum "Si O2"
_cell_formula_units_Z 52
_cell_length_a 16.581005
_cell_length_b 10.515785
_cell_length_c 8.841872
_cell_angle_alpha 90.000000
_cell_angle_beta 90.000000
_cell_angle_gamma 90.000000
_cell_volume 1541.688994
_symmetry_space_group_name_H-M "I M M A"
_symmetry_group_IT_number 74
_symmetry_cell_setting 'orthorhombic'
loop_
_space_group_symop_operation_xyz
x,y,z
-x,1/2-y,z
x,-y,-z
-x,1/2+y,-z
-x,-y,-z
x,1/2+y,-z
-x,y,z
x,1/2-y,z
1/2+x,1/2+y,1/2+z
1/2-x,-y,1/2+z
1/2+x,1/2-y,1/2-z
1/2-x,y,1/2-z
1/2-x,1/2-y,1/2-z
1/2+x,y,1/2-z
1/2-x,1/2+y,1/2+z
1/2+x,-y,1/2+z
loop_
_atom_site_type_symbol
_atom_site_label
_atom_site_fract_x
_atom_site_fract_y
_atom_site_fract_z
Si Si1 0.812579 0.250000 0.393896
Si Si2 0.000000 0.469342 0.676794
Si Si3 0.500000 0.750000 0.796948
Si Si4 0.397308 0.891009 0.378586
Si Si5 0.801344 0.079168 0.625964
O O1 0.750000 0.250000 0.250000
O O2 0.803563 0.415146 0.425786
O O3 0.910322 0.250000 0.369899
O O4 0.000000 0.500000 0.500000
O O5 0.902236 0.417501 0.681368
O O6 0.000000 0.607159 0.761836
O O7 0.500000 0.881844 0.340348
O O8 0.386005 0.750000 0.444520
O O9 0.298344 0.918399 0.331304
O O10 0.401014 0.000000 0.500000
O O11 0.802585 0.250000 0.588973
#
# Coordination Sequence:
#
# PCOD9540672 Si02
#       5
#     8   8   4  16  16
#     4  12  27  51  87 134 186 250 320 410 493 604
#     4  12  28  49  84 125 179 253 314 409 481 590
#     4  12  28  50  86 134 182 240 330 388 500 578
#     4  12  28  52  83 124 185 244 318 404 490 587
#     4  12  26  51  82 125 179 244 320 397 490 584
#
# _framework density 33.729241999999999
#
# number of rings (size 3 to 8) (size 9 to 14) (size 15 to 20)
#    0.000    0.000    1.538    7.846    4.308    2.462 
#    2.769    0.000    0.000    3.692    0.000    0.000 
#    0.000    0.000    0.000    0.000    0.000    0.000 
#
# Total GULP energy -145664.257036 kJ/mol
# GULP energy per Si atom -5602.471424 kJ/mol
# Density = 3.365247 g / cm^3
# Si number density = 33.729242 Si / 1000 Ang^3
#
#
#
# Elastic Constant Matrix: (Units=GPa)
#
#
# Indices 1 2 3 4 5 6 
#
# 1 468.4300 114.2099 167.7475 0.0000 0.0000 0.0000
# 2 114.2099 394.5263 166.4744 0.0000 0.0000 0.0000
# 3 167.7475 166.4744 264.3355 0.0000 0.0000 0.0000
# 4 0.0000 0.0000 0.0000 96.7301 0.0000 0.0000
# 5 0.0000 0.0000 0.0000 0.0000 124.4857 0.0000
# 6 0.0000 0.0000 0.0000 0.0000 0.0000 108.8946
#
#
#
# Elastic Compliance Matrix: (Units=1/GPa)
#
#
# Indices 1 2 3 4 5 6 
#
# 1 0.002765 -0.000082 -0.001703 0.000000 0.000000 0.000000
# 2 -0.000082 0.003454 -0.002124 0.000000 0.000000 0.000000
# 3 -0.001703 -0.002124 0.006201 0.000000 0.000000 0.000000
# 4 0.000000 0.000000 0.000000 0.010338 0.000000 0.000000
# 5 0.000000 0.000000 0.000000 0.000000 0.008033 0.000000
# 6 0.000000 0.000000 0.000000 0.000000 0.000000 0.009183
#
#
# Mechanical properties :
#
#
# Convention : Reuss Voigt Hill
#
# Bulk Modulus (GPa) = 217.22439 224.90618 221.06528
# Shear Modulus (GPa) = 101.36711 111.27943 106.32327
#
# Velocity S-wave (km/s) = 5.48803 5.75010 5.62059
# Velocity P-wave (km/s) = 10.23231 10.53135 10.38291
#
# Compressibility (1/GPa) = 0.00460353
#
# Stress axis : x y z
#
# Youngs Moduli (GPa) = 361.72410 289.48063 161.25902
#
# Poissons Ratio (x) = 0.02366 0.27461
# Poissons Ratio (y) = 0.02957 0.34247
# Poissons Ratio (z) = 0.61598 0.61477
#
# Static dielectric constant tensor:
#      x y z
#    x 2.465390 0.000000 0.000000 
#    y 0.000000 2.689480 0.000000 
#    z 0.000000 0.000000 2.683670 
# 
# From -- ./inp_files/47761.got.cif
#   From: 2010.05.17/outbox.cif.g08.bks.cpg/sg74_24_cif.got.tgz:47761.got - 2010.06.03 17:57:02.
