data_PCOD9540568
_publ_section_title
;
Structure prediction by ZEFSAII (Michael W. Deem and Ramdas Pophale) SiO2 
 PCOD9540568
Probable space group: I M M A
;
_chemical_formula_sum "Si O2"
_cell_formula_units_Z 80
_cell_length_a 25.269589
_cell_length_b 20.604595
_cell_length_c 9.003778
_cell_angle_alpha 90.000000
_cell_angle_beta 90.000000
_cell_angle_gamma 90.000000
_cell_volume 4687.993914
_symmetry_space_group_name_H-M "I M M A"
_symmetry_group_IT_number 74
_symmetry_cell_setting 'orthorhombic'
loop_
_space_group_symop_operation_xyz
x,y,z
-x,1/2-y,z
x,-y,-z
-x,1/2+y,-z
-x,-y,-z
x,1/2+y,-z
-x,y,z
x,1/2-y,z
1/2+x,1/2+y,1/2+z
1/2-x,-y,1/2+z
1/2+x,1/2-y,1/2-z
1/2-x,y,1/2-z
1/2-x,1/2-y,1/2-z
1/2+x,y,1/2-z
1/2-x,1/2+y,1/2+z
1/2+x,-y,1/2+z
loop_
_atom_site_type_symbol
_atom_site_label
_atom_site_fract_x
_atom_site_fract_y
_atom_site_fract_z
Si Si1 0.272851 0.176053 0.083994
Si Si2 0.382716 0.397169 0.074921
Si Si3 0.500000 0.466526 0.763672
Si Si4 0.000000 0.605160 0.565729
Si Si5 0.719722 0.937487 0.404366
Si Si6 0.615241 0.530599 0.246563
O O1 0.270636 0.250000 0.029113
O O2 0.250000 0.174169 0.250000
O O3 0.333164 0.150403 0.084767
O O4 0.237617 0.127071 0.987459
O O5 0.441585 0.366934 0.099355
O O6 0.375340 0.456428 0.192206
O O7 0.382539 0.429321 0.909385
O O8 0.500000 0.535351 0.850921
O O9 0.556429 0.463014 0.686396
O O10 0.500000 0.411694 0.891148
O O11 0.750000 0.940763 0.250000
O O12 0.658520 0.944282 0.360786
O O13 0.735711 0.000000 0.500000
#
# Coordination Sequence:
#
# PCOD9540568 Si02
#       6
#    16  16   8   8  16  16
#     4  11  24  39  53  73 107 144 178 221 271 317
#     4   9  15  31  50  78 105 135 170 217 263 309
#     4   7  12  24  43  74 107 133 161 209 264 306
#     4   7  12  22  49  74 101 131 167 211 263 304
#     4  12  22  34  54  80 106 140 179 218 258 318
#     4   9  16  28  51  78 106 135 171 214 260 309
#
# _framework density 17.064868000000001
#
# number of rings (size 3 to 8) (size 9 to 14) (size 15 to 20)
#    0.000    2.400    2.000    5.400    0.000    0.400 
#    0.000    1.000    0.000    1.200    0.000    2.100 
#    0.000    0.000    0.000    0.000    0.000    0.000 
#
# Total GULP energy -222855.227683 kJ/mol
# GULP energy per Si atom -5571.380692 kJ/mol
# Density = 1.702603 g / cm^3
# Si number density = 17.064868 Si / 1000 Ang^3
#
#
#
# Elastic Constant Matrix: (Units=GPa)
#
#
# Indices 1 2 3 4 5 6 
#
# 1 141.3303 72.0156 39.8115 0.0000 0.0000 0.0000
# 2 72.0156 103.6871 40.1521 0.0000 0.0000 0.0000
# 3 39.8115 40.1521 47.6318 0.0000 0.0000 0.0000
# 4 0.0000 0.0000 0.0000 20.1099 0.0000 0.0000
# 5 0.0000 0.0000 0.0000 0.0000 12.1863 0.0000
# 6 0.0000 0.0000 0.0000 0.0000 0.0000 -19.7538
#
#
#
# Elastic Compliance Matrix: (Units=1/GPa)
#
#
# Indices 1 2 3 4 5 6 
#
# 1 0.011510 -0.006338 -0.004278 0.000000 0.000000 0.000000
# 2 -0.006338 0.017808 -0.009715 0.000000 0.000000 0.000000
# 3 -0.004278 -0.009715 0.032759 0.000000 0.000000 0.000000
# 4 0.000000 0.000000 0.000000 0.049727 0.000000 0.000000
# 5 0.000000 0.000000 0.000000 0.000000 0.082060 0.000000
# 6 0.000000 0.000000 0.000000 0.000000 0.000000 -0.050623
#
#
# Mechanical properties :
#
#
# Convention : Reuss Voigt Hill
#
# Bulk Modulus (GPa) = 46.69191 66.28972 56.49082
# Shear Modulus (GPa) = 26.17261 11.88647 19.02954
#
# Velocity S-wave (km/s) = 3.92051 2.64208 3.34298
# Velocity P-wave (km/s) = 6.92205 6.94532 6.93369
#
# Compressibility (1/GPa) = 0.02141699
#
# Stress axis : x y z
#
# Youngs Moduli (GPa) = 86.88044 56.15405 30.52604
#
# Poissons Ratio (x) = 0.35589 0.13058
# Poissons Ratio (y) = 0.55063 0.29655
# Poissons Ratio (z) = 0.37166 0.54551
#
# Static dielectric constant tensor:
#      x y z
#    x 1.647440 0.000000 0.000000 
#    y 0.000000 1.554710 0.000000 
#    z 0.000000 0.000000 1.585090 
# 
# From -- ./inp_files/10999.got.cif
#   From: 2010.05.17/outbox.cif.g08.bks.cpg/sg74_6_cif.got.tgz:10999.got - 2010.06.03 17:57:02.
