data_PCOD9541681
_publ_section_title
;
Structure prediction by ZEFSAII (Michael W. Deem and Ramdas Pophale) SiO2 
 PCOD9541681
Probable space group: P 43
;
_chemical_formula_sum "Si O2"
_cell_formula_units_Z 32
_cell_length_a 16.041587
_cell_length_b 16.041587
_cell_length_c 6.685859
_cell_angle_alpha 90.000000
_cell_angle_beta 90.000000
_cell_angle_gamma 90.000000
_cell_volume 1720.488901
_symmetry_space_group_name_H-M "P 43"
_symmetry_group_IT_number 78
_symmetry_cell_setting 'tetragonal'
loop_
_space_group_symop_operation_xyz
x,y,z
-y,x,3/4+z
-x,-y,1/2+z
y,-x,1/4+z
loop_
_atom_site_type_symbol
_atom_site_label
_atom_site_fract_x
_atom_site_fract_y
_atom_site_fract_z
Si Si1 0.353473 0.227733 0.150880
Si Si2 0.081904 0.083241 0.546369
Si Si3 0.399343 0.533200 0.998130
Si Si4 0.788514 0.899422 0.743633
Si Si5 0.089544 0.192412 0.927598
Si Si6 0.767332 0.516149 0.657219
Si Si7 0.327385 0.367326 0.471394
Si Si8 0.667430 0.224526 0.625750
O O1 0.296918 0.148833 0.209493
O O2 0.438829 0.198514 0.040905
O O3 0.360806 0.287082 0.347409
O O4 0.296556 0.284276 0.001763
O O5 0.166359 0.119379 0.452961
O O6 0.063415 0.137515 0.738547
O O7 0.010770 0.087601 0.378251
O O8 0.442674 0.567571 0.194532
O O9 0.301754 0.529428 0.023461
O O10 0.417031 0.595248 0.816607
O O11 0.853503 0.864135 0.575701
O O12 0.779218 0.999214 0.754643
O O13 0.146668 0.270195 0.866792
O O14 0.803982 0.584232 0.499658
O O15 0.721161 0.574495 0.817731
O O16 0.265962 0.348850 0.659093
#
# Coordination Sequence:
#
# PCOD9541681 Si02
#       8
#     4   4   4   4   4   4   4   4
#     4  10  22  37  60  86 115 156 206 247 300 367
#     4  12  21  34  58  97 131 162 190 236 315 386
#     4  12  20  31  50  83 115 145 186 242 305 368
#     4  11  22  39  61  90 129 158 195 250 300 373
#     4  11  22  39  62  91 124 161 196 246 309 365
#     4  11  21  38  55  82 114 156 201 252 301 352
#     4  11  20  37  57  82 113 155 195 250 306 359
#     4  10  22  39  59  83 119 157 201 249 302 368
#
# _framework density 18.599363
#
# number of rings (size 3 to 8) (size 9 to 14) (size 15 to 20)
#    0.000    1.000    5.000    3.750    0.000    0.000 
#    0.000    0.000    2.750    0.000    0.000    0.000 
#    0.000    0.000    0.000    0.000    0.000    0.000 
#
# Total GULP energy -178317.358836 kJ/mol
# GULP energy per Si atom -5572.417464 kJ/mol
# Density = 1.855703 g / cm^3
# Si number density = 18.599363 Si / 1000 Ang^3
#
#
#
# Elastic Constant Matrix: (Units=GPa)
#
#
# Indices 1 2 3 4 5 6 
#
# 1 61.8114 24.1703 0.1559 0.0000 0.0000 5.2771
# 2 24.1703 61.8114 0.1559 0.0000 0.0000 -5.2771
# 3 0.1559 0.1559 50.7213 0.0000 0.0000 0.0000
# 4 0.0000 0.0000 0.0000 24.7285 0.0000 0.0000
# 5 0.0000 0.0000 0.0000 0.0000 24.7285 0.0000
# 6 5.2771 -5.2771 0.0000 0.0000 0.0000 8.0771
#
#
#
# Elastic Compliance Matrix: (Units=1/GPa)
#
#
# Indices 1 2 3 4 5 6 
#
# 1 0.022078 -0.010447 -0.000036 0.000000 0.000000 -0.021250
# 2 -0.010447 0.022078 -0.000036 0.000000 0.000000 0.021250
# 3 -0.000036 -0.000036 0.019716 0.000000 0.000000 0.000000
# 4 0.000000 0.000000 0.000000 0.040439 0.000000 0.000000
# 5 0.000000 0.000000 0.000000 0.000000 0.040439 0.000000
# 6 -0.021250 0.021250 0.000000 0.000000 0.000000 0.151573
#
#
# Mechanical properties :
#
#
# Convention : Reuss Voigt Hill
#
# Bulk Modulus (GPa) = 23.34604 24.81204 24.07904
# Shear Modulus (GPa) = 15.07667 21.49762 18.28715
#
# Velocity S-wave (km/s) = 2.85020 3.40343 3.13903
# Velocity P-wave (km/s) = 4.83847 5.36784 5.11001
#
# Compressibility (1/GPa) = 0.04283381
#
# Stress axis : x y z
#
# Youngs Moduli (GPa) = 45.29460 45.29460 50.72075
#
# Poissons Ratio (x) = 0.47320 0.00181
# Poissons Ratio (y) = 0.47320 0.00181
# Poissons Ratio (z) = 0.00162 0.00162
#
# Static dielectric constant tensor:
#      x y z
#    x 1.658660 0.000000 0.000000 
#    y 0.000000 1.658660 0.000000 
#    z 0.000000 0.000000 1.673960 
# 
# From -- ./inp_files/329.got.cif
#   From: 2010.05.17/outbox.cif.g08.bks.cpg/sg78_cif.got.tgz:329.got - 2010.06.03 18:45:56.
