data_PCOD9541595
_publ_section_title
;
Structure prediction by ZEFSAII (Michael W. Deem and Ramdas Pophale) SiO2 
 PCOD9541595
Probable space group: P 43
;
_chemical_formula_sum "Si O2"
_cell_formula_units_Z 32
_cell_length_a 7.017097
_cell_length_b 7.017097
_cell_length_c 28.114217
_cell_angle_alpha 90.000000
_cell_angle_beta 90.000000
_cell_angle_gamma 90.000000
_cell_volume 1384.334214
_symmetry_space_group_name_H-M "P 43"
_symmetry_group_IT_number 78
_symmetry_cell_setting 'tetragonal'
loop_
_space_group_symop_operation_xyz
x,y,z
-y,x,3/4+z
-x,-y,1/2+z
y,-x,1/4+z
loop_
_atom_site_type_symbol
_atom_site_label
_atom_site_fract_x
_atom_site_fract_y
_atom_site_fract_z
Si Si1 0.580560 0.492754 0.186740
Si Si2 0.912091 0.458244 0.962476
Si Si3 0.936519 0.091306 0.024965
Si Si4 0.598937 0.157144 0.628705
Si Si5 0.782674 0.315713 0.303246
Si Si6 0.209411 0.194988 0.736825
Si Si7 0.420945 0.156100 0.346730
Si Si8 0.779796 0.018591 0.383770
O O1 0.456207 0.655860 0.160448
O O2 0.691073 0.598179 0.230421
O O3 0.714662 0.413463 0.144149
O O4 0.479899 0.817530 0.076061
O O5 0.733318 0.556691 0.057893
O O6 0.686625 0.478961 0.959161
O O7 0.038101 0.620240 0.989483
O O8 0.984621 0.485388 0.908613
O O9 0.760948 0.939594 0.015931
O O10 0.121027 0.953406 0.022442
O O11 0.903769 0.229011 0.070654
O O12 0.957048 0.251205 0.983891
O O13 0.820547 0.122114 0.629057
O O14 0.847721 0.177535 0.347319
O O15 0.104587 0.192833 0.685549
O O16 0.559220 0.988691 0.366575
#
# Coordination Sequence:
#
# PCOD9541595 Si02
#       8
#     4   4   4   4   4   4   4   4
#     4   9  20  41  64  89 123 170 205 256 311 375
#     4  11  21  37  63  92 125 159 207 260 313 366
#     4  12  21  37  64  94 125 165 206 262 324 364
#     4  10  18  40  65  87 121 158 209 257 300 369
#     4   9  20  38  59  84 127 165 198 252 315 371
#     4  10  21  40  63  87 127 160 209 260 312 366
#     4   8  19  37  62  84 125 167 203 249 314 368
#     4   9  18  40  62  89 113 168 209 244 299 385
#
# _framework density 23.115803
#
# number of rings (size 3 to 8) (size 9 to 14) (size 15 to 20)
#    0.750    1.500    3.750    1.500    0.000    0.000 
#    6.750    6.250    5.500    0.000    0.000    0.000 
#    0.000    0.000    0.000    0.000    0.000    0.000 
#
# Total GULP energy -178152.367505 kJ/mol
# GULP energy per Si atom -5567.261485 kJ/mol
# Density = 2.306319 g / cm^3
# Si number density = 23.115803 Si / 1000 Ang^3
#
#
#
# Elastic Constant Matrix: (Units=GPa)
#
#
# Indices 1 2 3 4 5 6 
#
# 1 96.9733 16.8472 -0.7468 0.0000 0.0000 -4.6632
# 2 16.8472 96.9733 -0.7468 0.0000 0.0000 4.6632
# 3 -0.7468 -0.7468 64.6669 0.0000 0.0000 0.0000
# 4 0.0000 0.0000 0.0000 24.6180 0.0000 0.0000
# 5 0.0000 0.0000 0.0000 0.0000 24.6180 0.0000
# 6 -4.6632 4.6632 0.0000 0.0000 0.0000 20.6342
#
#
#
# Elastic Compliance Matrix: (Units=1/GPa)
#
#
# Indices 1 2 3 4 5 6 
#
# 1 0.010802 -0.002015 0.000101 0.000000 0.000000 0.002897
# 2 -0.002015 0.010802 0.000101 0.000000 0.000000 -0.002897
# 3 0.000101 0.000101 0.015466 0.000000 0.000000 0.000000
# 4 0.000000 0.000000 0.000000 0.040621 0.000000 0.000000
# 5 0.000000 0.000000 0.000000 0.000000 0.040621 0.000000
# 6 0.002897 -0.002897 0.000000 0.000000 0.000000 0.049772
#
#
# Mechanical properties :
#
#
# Convention : Reuss Voigt Hill
#
# Bulk Modulus (GPa) = 29.89864 32.14671 31.02267
# Shear Modulus (GPa) = 27.34368 30.19140 28.76754
#
# Velocity S-wave (km/s) = 3.44306 3.61791 3.53157
# Velocity P-wave (km/s) = 5.36364 5.60262 5.48443
#
# Compressibility (1/GPa) = 0.03344634
#
# Stress axis : x y z
#
# Youngs Moduli (GPa) = 92.57292 92.57292 64.65707
#
# Poissons Ratio (x) = 0.18655 -0.00656
# Poissons Ratio (y) = 0.18655 -0.00656
# Poissons Ratio (z) = -0.00939 -0.00939
#
# Static dielectric constant tensor:
#      x y z
#    x 1.900680 0.000000 0.000000 
#    y 0.000000 1.900680 0.000000 
#    z 0.000000 0.000000 1.984570 
# 
# From -- ./inp_files/1754.got.cif
#   From: 2010.05.17/outbox.cif.g08.bks.cpg/sg78_cif.got.tgz:1754.got - 2010.06.03 18:45:56.
