data_PCOD9541601
_publ_section_title
;
Structure prediction by ZEFSAII (Michael W. Deem and Ramdas Pophale) SiO2 
 PCOD9541601
Probable space group: P 43
;
_chemical_formula_sum "Si O2"
_cell_formula_units_Z 32
_cell_length_a 15.404865
_cell_length_b 15.404865
_cell_length_c 7.146293
_cell_angle_alpha 90.000000
_cell_angle_beta 90.000000
_cell_angle_gamma 90.000000
_cell_volume 1695.885832
_symmetry_space_group_name_H-M "P 43"
_symmetry_group_IT_number 78
_symmetry_cell_setting 'tetragonal'
loop_
_space_group_symop_operation_xyz
x,y,z
-y,x,3/4+z
-x,-y,1/2+z
y,-x,1/4+z
loop_
_atom_site_type_symbol
_atom_site_label
_atom_site_fract_x
_atom_site_fract_y
_atom_site_fract_z
Si Si1 0.747684 0.753953 0.516980
Si Si2 0.867101 0.607401 0.654001
Si Si3 0.245500 0.857782 0.908096
Si Si4 0.981530 0.882895 0.377750
Si Si5 0.059595 0.414166 0.737788
Si Si6 0.589152 0.863206 0.425300
Si Si7 0.612684 0.937508 0.003753
Si Si8 0.209418 0.123360 0.330945
O O1 0.785993 0.673349 0.637376
O O2 0.778908 0.745472 0.303948
O O3 0.648739 0.785576 0.499944
O O4 0.791442 0.833851 0.626371
O O5 0.897079 0.595663 0.438973
O O6 0.841491 0.510893 0.714396
O O7 0.958638 0.632217 0.752987
O O8 0.341167 0.893347 0.865487
O O9 0.187838 0.833032 0.730976
O O10 0.194441 0.929113 0.030068
O O11 0.042202 0.922853 0.216618
O O12 0.035476 0.843677 0.552107
O O13 0.067893 0.514081 0.673088
O O14 0.958016 0.393234 0.763374
O O15 0.606444 0.889661 0.206299
O O16 0.692138 0.894358 0.894704
#
# Coordination Sequence:
#
# PCOD9541601 Si02
#       8
#     4   4   4   4   4   4   4   4
#     4  11  21  40  56  84 119 145 191 246 289 348
#     4   9  20  36  57  87 115 152 193 238 294 354
#     4  11  23  40  59  82 114 152 196 242 297 340
#     4  12  25  41  55  77 112 158 208 244 276 331
#     4   9  20  36  58  84 117 149 189 246 295 344
#     4  10  19  35  61  84 117 155 184 243 299 345
#     4  10  20  36  57  87 116 149 198 234 299 347
#     4  12  24  38  61  83 112 156 197 241 293 347
#
# _framework density 18.869195999999999
#
# number of rings (size 3 to 8) (size 9 to 14) (size 15 to 20)
#    0.000    1.500    2.500    3.750    1.750    1.000 
#    0.000    0.000    0.000    0.000    0.000    5.250 
#    0.000    0.000    0.000    0.000    0.000    0.000 
#
# Total GULP energy -178486.689731 kJ/mol
# GULP energy per Si atom -5577.709054 kJ/mol
# Density = 1.882625 g / cm^3
# Si number density = 18.869196 Si / 1000 Ang^3
#
#
#
# Elastic Constant Matrix: (Units=GPa)
#
#
# Indices 1 2 3 4 5 6 
#
# 1 83.2142 58.1502 5.7779 0.0000 0.0000 0.1744
# 2 58.1502 83.2142 5.7779 0.0000 0.0000 -0.1744
# 3 5.7779 5.7779 47.9523 0.0000 0.0000 0.0000
# 4 0.0000 0.0000 0.0000 23.7144 0.0000 0.0000
# 5 0.0000 0.0000 0.0000 0.0000 23.7144 0.0000
# 6 0.1744 -0.1744 0.0000 0.0000 0.0000 31.8982
#
#
#
# Elastic Compliance Matrix: (Units=1/GPa)
#
#
# Indices 1 2 3 4 5 6 
#
# 1 0.023523 -0.016378 -0.000861 0.000000 0.000000 -0.000218
# 2 -0.016378 0.023523 -0.000861 0.000000 0.000000 0.000218
# 3 -0.000861 -0.000861 0.021061 0.000000 0.000000 0.000000
# 4 0.000000 0.000000 0.000000 0.042168 0.000000 0.000000
# 5 0.000000 0.000000 0.000000 0.000000 0.042168 0.000000
# 6 -0.000218 0.000218 0.000000 0.000000 0.000000 0.031352
#
#
# Mechanical properties :
#
#
# Convention : Reuss Voigt Hill
#
# Bulk Modulus (GPa) = 31.34135 39.31031 35.32583
# Shear Modulus (GPa) = 21.67962 25.51038 23.59500
#
# Velocity S-wave (km/s) = 3.39328 3.68089 3.54001
# Velocity P-wave (km/s) = 5.65671 6.24048 5.95575
#
# Compressibility (1/GPa) = 0.03190673
#
# Stress axis : x y z
#
# Youngs Moduli (GPa) = 42.51230 42.51230 47.48003
#
# Poissons Ratio (x) = 0.69628 0.04087
# Poissons Ratio (y) = 0.69628 0.04087
# Poissons Ratio (z) = 0.03660 0.03660
#
# Static dielectric constant tensor:
#      x y z
#    x 1.666310 0.000000 0.000000 
#    y 0.000000 1.666310 0.000000 
#    z 0.000000 0.000000 1.724880 
# 
# From -- ./inp_files/746.got.cif
#   From: 2010.05.17/outbox.cif.g08.bks.cpg/sg78_cif.got.tgz:746.got - 2010.06.03 18:45:56.
