data_PCOD9541062
_publ_section_title
;
Structure prediction by ZEFSAII (Michael W. Deem and Ramdas Pophale) SiO2 
 PCOD9541062
Probable space group: P 4
;
_chemical_formula_sum "Si O2"
_cell_formula_units_Z 30
_cell_length_a 7.263594
_cell_length_b 7.263594
_cell_length_c 21.563707
_cell_angle_alpha 90.000000
_cell_angle_beta 90.000000
_cell_angle_gamma 90.000000
_cell_volume 1137.696821
_symmetry_space_group_name_H-M "P 4"
_symmetry_group_IT_number 75
_symmetry_cell_setting 'tetragonal'
loop_
_space_group_symop_operation_xyz
x,y,z
-y,x,z
-x,-y,z
y,-x,z
loop_
_atom_site_type_symbol
_atom_site_label
_atom_site_fract_x
_atom_site_fract_y
_atom_site_fract_z
Si Si1 0.674016 0.762434 0.914990
Si Si2 0.000000 0.500000 0.421203
Si Si3 0.711146 0.732415 0.783428
Si Si4 0.305305 0.745902 0.651425
Si Si5 0.635801 0.776088 0.045397
Si Si6 0.770829 0.656926 0.518616
Si Si7 0.718258 0.866301 0.317320
Si Si8 0.279202 0.125426 0.184599
O O1 0.450606 0.743279 0.914443
O O2 0.749931 0.830943 0.848990
O O3 0.704952 0.865366 0.980678
O O4 0.085792 0.334440 0.462689
O O5 0.155489 0.587197 0.376063
O O6 0.488070 0.747948 0.783363
O O7 0.802268 0.779462 0.717435
O O8 0.253185 0.528914 0.651101
O O9 0.271483 0.841595 0.585447
O O10 0.419745 0.736543 0.042393
O O11 0.656450 0.849043 0.114548
O O12 0.565552 0.737971 0.516087
O O13 0.626507 0.824511 0.250016
O O14 0.915231 0.768083 0.319807
O O15 0.088684 0.234069 0.187876
#
# Coordination Sequence:
#
# PCOD9541062 Si02
#       8
#     4   2   4   4   4   4   4   4
#     4   7  10  17  30  54  88 117 141 174 214 256
#     4  12  20  30  52  74  90 120 156 192 246 288
#     4   7   8  12  27  51  78 112 149 175 203 251
#     4   7  10  18  33  54  82 115 147 178 213 258
#     4   9  17  28  44  70 100 122 143 181 231 276
#     4   9  18  31  45  67  98 123 149 190 236 283
#     4   9  20  37  52  68  91 117 151 194 234 280
#     4   9  19  35  51  65  84 115 155 193 226 269
#
# _framework density 26.369064000000002
#
# number of rings (size 3 to 8) (size 9 to 14) (size 15 to 20)
#    0.000    3.600    0.000    4.800    0.000    2.667 
#    0.000    0.000    0.000    1.600    0.000    9.333 
#    0.000    0.000    0.000    6.267    0.000    3.200 
#
# Total GULP energy -167101.331485 kJ/mol
# GULP energy per Si atom -5570.044383 kJ/mol
# Density = 2.630905 g / cm^3
# Si number density = 26.369064 Si / 1000 Ang^3
#
#
#
# Elastic Constant Matrix: (Units=GPa)
#
#
# Indices 1 2 3 4 5 6 
#
# 1 70.8173 0.2859 27.3262 0.0000 0.0000 -4.7882
# 2 0.2859 70.8173 27.3262 0.0000 0.0000 4.7882
# 3 27.3262 27.3262 290.9086 0.0000 0.0000 0.0000
# 4 0.0000 0.0000 0.0000 -22.6202 0.0000 0.0000
# 5 0.0000 0.0000 0.0000 0.0000 -22.6202 0.0000
# 6 -4.7882 4.7882 0.0000 0.0000 0.0000 15.7022
#
#
#
# Elastic Compliance Matrix: (Units=1/GPa)
#
#
# Indices 1 2 3 4 5 6 
#
# 1 0.014974 0.000184 -0.001424 0.000000 0.000000 0.004510
# 2 0.000184 0.014974 -0.001424 0.000000 0.000000 -0.004510
# 3 -0.001424 -0.001424 0.003705 0.000000 0.000000 0.000000
# 4 0.000000 0.000000 0.000000 -0.044208 0.000000 0.000000
# 5 0.000000 0.000000 0.000000 0.000000 -0.044208 0.000000
# 6 0.004510 -0.004510 0.000000 0.000000 0.000000 0.066436
#
#
# Mechanical properties :
#
#
# Convention : Reuss Voigt Hill
#
# Bulk Modulus (GPa) = 35.30270 60.26885 47.78578
# Shear Modulus (GPa) = 189.08716 19.26604 104.17660
#
# Velocity S-wave (km/s) = 8.47724 2.70595 6.29229
# Velocity P-wave (km/s) = 10.45156 5.71563 8.42329
#
# Compressibility (1/GPa) = 0.02832644
#
# Stress axis : x y z
#
# Youngs Moduli (GPa) = 66.78029 66.78029 269.90478
#
# Poissons Ratio (x) = -0.01229 0.38432
# Poissons Ratio (y) = -0.01229 0.38432
# Poissons Ratio (z) = 0.09509 0.09509
#
# Static dielectric constant tensor:
#      x y z
#    x 2.116920 0.000000 0.000000 
#    y 0.000000 2.116920 0.000000 
#    z 0.000000 0.000000 2.277700 
# 
# From -- ./inp_files/760.got.cif
#   From: 2010.05.17/outbox.cif.g08.bks.cpg/sg75_cif.got.tgz:760.got - 2010.06.03 18:42:43.
