data_PCOD9541049
_publ_section_title
;
Structure prediction by ZEFSAII (Michael W. Deem and Ramdas Pophale) SiO2 
 PCOD9541049
Probable space group: P 4
;
_chemical_formula_sum "Si O2"
_cell_formula_units_Z 18
_cell_length_a 8.337374
_cell_length_b 8.337374
_cell_length_c 11.908086
_cell_angle_alpha 90.000000
_cell_angle_beta 90.000000
_cell_angle_gamma 90.000000
_cell_volume 827.752555
_symmetry_space_group_name_H-M "P 4"
_symmetry_group_IT_number 75
_symmetry_cell_setting 'tetragonal'
loop_
_space_group_symop_operation_xyz
x,y,z
-y,x,z
-x,-y,z
y,-x,z
loop_
_atom_site_type_symbol
_atom_site_label
_atom_site_fract_x
_atom_site_fract_y
_atom_site_fract_z
Si Si1 0.243834 0.099715 0.264900
Si Si2 0.243833 0.900285 0.946945
Si Si3 0.713284 0.333329 0.478865
Si Si4 0.286716 0.333329 0.732979
Si Si5 0.000000 0.500000 0.105922
O O1 0.274671 0.151986 0.392993
O O2 0.084496 0.199274 0.240090
O O3 0.398244 0.116841 0.187614
O O4 0.274671 0.848014 0.818852
O O5 0.084496 0.800726 0.971754
O O6 0.398244 0.883159 0.024230
O O7 0.714696 0.526470 0.461626
O O8 0.731725 0.268275 0.605922
O O9 0.473530 0.285304 0.750218
#
# Coordination Sequence:
#
# PCOD9541049 Si02
#       5
#     4   4   4   4   2
#     4  11  24  41  63  93 129 172 224 286 354 420
#     4  11  24  41  63  93 129 172 224 286 354 420
#     4   9  19  38  64  94 131 177 228 280 337 405
#     4   9  19  38  64  94 131 177 228 280 337 405
#     4  12  24  42  64  88 128 178 224 282 352 428
#
# _framework density 21.745626999999999
#
# number of rings (size 3 to 8) (size 9 to 14) (size 15 to 20)
#    0.000    1.778    0.000    5.333    0.000    3.556 
#    0.000    6.667    0.000    2.667    0.000    0.000 
#    0.000    0.000    0.000    0.000    0.000    0.000 
#
# Total GULP energy -100257.715354 kJ/mol
# GULP energy per Si atom -5569.873075 kJ/mol
# Density = 2.169613 g / cm^3
# Si number density = 21.745627 Si / 1000 Ang^3
#
#
#
# Elastic Constant Matrix: (Units=GPa)
#
#
# Indices 1 2 3 4 5 6 
#
# 1 71.5223 30.3386 58.6692 0.0000 0.0000 0.0000
# 2 30.3386 71.5223 58.6692 0.0000 0.0000 0.0000
# 3 58.6692 58.6692 142.1919 0.0000 0.0000 0.0000
# 4 0.0000 0.0000 0.0000 39.9627 0.0000 0.0000
# 5 0.0000 0.0000 0.0000 0.0000 39.9627 0.0000
# 6 0.0000 0.0000 0.0000 0.0000 0.0000 -3.1671
#
#
#
# Elastic Compliance Matrix: (Units=1/GPa)
#
#
# Indices 1 2 3 4 5 6 
#
# 1 0.021496 -0.002786 -0.007720 0.000000 0.000000 0.000000
# 2 -0.002786 0.021496 -0.007720 0.000000 0.000000 0.000000
# 3 -0.007720 -0.007720 0.013403 0.000000 0.000000 0.000000
# 4 0.000000 0.000000 0.000000 0.025023 0.000000 0.000000
# 5 0.000000 0.000000 0.000000 0.000000 0.025023 0.000000
# 6 0.000000 0.000000 0.000000 0.000000 0.000000 -0.315745
#
#
# Mechanical properties :
#
#
# Convention : Reuss Voigt Hill
#
# Bulk Modulus (GPa) = 50.14021 64.51004 57.32512
# Shear Modulus (GPa) = -30.08352 24.52228 -2.78062
#
# Velocity S-wave (km/s) = -3.72348 3.36175 -1.13202
# Velocity P-wave (km/s) = 2.14986 6.69318 4.97094
#
# Compressibility (1/GPa) = 0.01994407
#
# Stress axis : x y z
#
# Youngs Moduli (GPa) = 46.52051 46.52051 74.60817
#
# Poissons Ratio (x) = 0.12959 0.57597
# Poissons Ratio (y) = 0.12959 0.57597
# Poissons Ratio (z) = 0.35914 0.35914
#
# Static dielectric constant tensor:
#      x y z
#    x 1.836150 0.000000 0.000000 
#    y 0.000000 1.836150 0.000000 
#    z 0.000000 0.000000 1.837110 
# 
# From -- ./inp_files/503.got.cif
#   From: 2010.05.17/outbox.cif.g08.bks.cpg/sg75_cif.got.tgz:503.got - 2010.06.03 18:42:43.
