data_PCOD9541942
_publ_section_title
;
Structure prediction by ZEFSAII (Michael W. Deem and Ramdas Pophale) SiO2 
 PCOD9541942
Probable space group: I 4
;
_chemical_formula_sum "Si O2"
_cell_formula_units_Z 46
_cell_length_a 8.560763
_cell_length_b 8.560763
_cell_length_c 29.673965
_cell_angle_alpha 90.000000
_cell_angle_beta 90.000000
_cell_angle_gamma 90.000000
_cell_volume 2174.705877
_symmetry_space_group_name_H-M "I 4"
_symmetry_group_IT_number 79
_symmetry_cell_setting 'tetragonal'
loop_
_space_group_symop_operation_xyz
x,y,z
-y,x,z
-x,-y,z
y,-x,z
1/2+x,1/2+y,1/2+z
1/2-y,1/2+x,1/2+z
1/2-x,1/2-y,1/2+z
1/2+y,1/2-x,1/2+z
loop_
_atom_site_type_symbol
_atom_site_label
_atom_site_fract_x
_atom_site_fract_y
_atom_site_fract_z
Si Si1 0.746141 0.075500 0.181600
Si Si2 0.500000 0.000000 0.608740
Si Si3 0.642658 0.896861 0.022625
Si Si4 0.500000 0.500000 0.520247
Si Si5 0.102488 0.230588 0.436435
Si Si6 0.250821 0.089155 0.762157
Si Si7 0.081004 0.751146 0.862346
O O1 0.628049 0.085034 0.139500
O O2 0.647634 0.126916 0.225254
O O3 0.898711 0.186726 0.180630
O O4 0.382807 0.909106 0.574732
O O5 0.639417 0.752720 0.989180
O O6 0.500000 0.000000 0.003192
O O7 0.807753 0.983073 0.020700
O O8 0.156186 0.374188 0.406165
O O9 0.924681 0.196866 0.424564
O O10 0.318360 0.108700 0.812678
O O11 0.090607 0.192006 0.757509
O O12 0.905533 0.812001 0.863969
#
# Coordination Sequence:
#
# PCOD9541942 Si02
#       7
#     8   4   8   2   8   8   8
#     4  11  24  40  66  97 130 168 218 272 336 413
#     4  10  26  42  64  94 130 160 218 282 332 404
#     4  10  26  43  68 101 133 175 232 284 343 410
#     4  12  24  44  80 100 132 192 232 292 352 424
#     4  11  25  42  60  93 137 176 219 282 344 403
#     4   9  19  41  65  93 132 172 214 272 337 406
#     4   9  21  38  65  95 124 170 224 267 327 411
#
# _framework density 21.152287000000001
#
# number of rings (size 3 to 8) (size 9 to 14) (size 15 to 20)
#    0.522    1.391    0.000    3.130    7.304    1.391 
#    0.000    5.217    0.000    0.000    0.000    0.000 
#    0.000    0.000    0.000    0.000    0.000    0.000 
#
# Total GULP energy -128066.129377 kJ/mol
# GULP energy per Si atom -5568.092582 kJ/mol
# Density = 2.110414 g / cm^3
# Si number density = 21.152287 Si / 1000 Ang^3
#
#
#
# Elastic Constant Matrix: (Units=GPa)
#
#
# Indices 1 2 3 4 5 6 
#
# 1 58.1474 50.3321 36.1842 0.0000 0.0000 -7.1891
# 2 50.3321 58.1474 36.1842 0.0000 0.0000 7.1891
# 3 36.1842 36.1842 123.0215 0.0000 0.0000 0.0000
# 4 0.0000 0.0000 0.0000 27.9796 0.0000 0.0000
# 5 0.0000 0.0000 0.0000 0.0000 27.9796 0.0000
# 6 -7.1891 7.1891 0.0000 0.0000 0.0000 23.2264
#
#
#
# Elastic Compliance Matrix: (Units=1/GPa)
#
#
# Indices 1 2 3 4 5 6 
#
# 1 0.154324 -0.142855 -0.003373 0.000000 0.000000 0.091983
# 2 -0.142855 0.154324 -0.003373 0.000000 0.000000 -0.091983
# 3 -0.003373 -0.003373 0.010113 0.000000 0.000000 0.000000
# 4 0.000000 0.000000 0.000000 0.035740 0.000000 0.000000
# 5 0.000000 0.000000 0.000000 0.000000 0.035740 0.000000
# 6 0.091983 -0.091983 0.000000 0.000000 0.000000 0.099996
#
#
# Mechanical properties :
#
#
# Convention : Reuss Voigt Hill
#
# Bulk Modulus (GPa) = 51.13176 53.85745 52.49460
# Shear Modulus (GPa) = 6.28173 23.61151 14.94662
#
# Velocity S-wave (km/s) = 1.72517 3.34468 2.66112
# Velocity P-wave (km/s) = 5.30979 6.35868 5.85776
#
# Compressibility (1/GPa) = 0.01955732
#
# Stress axis : x y z
#
# Youngs Moduli (GPa) = 6.47989 6.47989 98.88249
#
# Poissons Ratio (x) = 0.92568 0.33356
# Poissons Ratio (y) = 0.92568 0.33356
# Poissons Ratio (z) = 0.02186 0.02186
#
# Static dielectric constant tensor:
#      x y z
#    x 1.768820 0.000000 0.000000 
#    y 0.000000 1.768820 0.000000 
#    z 0.000000 0.000000 1.768590 
# 
# From -- ./inp_files/2105.got.cif
#   From: 2010.05.17/outbox.cif.g08.bks.cpg/sg79_cif.got.tgz:2105.got - 2010.06.03 18:47:27.
