data_PCOD9541488
_publ_section_title
;
Structure prediction by ZEFSAII (Michael W. Deem and Ramdas Pophale) SiO2 
 PCOD9541488
Probable space group: P 42
;
_chemical_formula_sum "Si O2"
_cell_formula_units_Z 12
_cell_length_a 7.790382
_cell_length_b 7.790382
_cell_length_c 8.175295
_cell_angle_alpha 90.000000
_cell_angle_beta 90.000000
_cell_angle_gamma 90.000000
_cell_volume 496.159076
_symmetry_space_group_name_H-M "P 42"
_symmetry_group_IT_number 77
_symmetry_cell_setting 'tetragonal'
loop_
_space_group_symop_operation_xyz
x,y,z
-y,x,1/2+z
-x,-y,z
y,-x,1/2+z
loop_
_atom_site_type_symbol
_atom_site_label
_atom_site_fract_x
_atom_site_fract_y
_atom_site_fract_z
Si Si1 0.943314 0.306824 0.373800
Si Si2 0.733667 0.812936 0.532068
Si Si3 0.695038 0.565339 0.821583
O O1 0.919238 0.817050 0.453012
O O2 0.744333 0.278344 0.419224
O O3 0.000000 0.500000 0.411935
O O4 0.948113 0.290774 0.176608
O O5 0.721618 0.634188 0.637307
O O6 0.586636 0.809046 0.394978
O O7 0.500000 0.500000 0.831621
#
# Coordination Sequence:
#
# PCOD9541488 Si02
#       3
#     4   4   4
#     4  10  22  38  76 109 144 196 251 296 382 432
#     4  10  21  42  72 110 147 194 250 303 369 447
#     4  10  20  36  77 105 149 192 248 300 373 442
#
# _framework density 24.185793
#
# number of rings (size 3 to 8) (size 9 to 14) (size 15 to 20)
#    2.000    0.000    3.333    1.000    0.000    0.000 
#    0.000    1.667   14.667    2.000    0.000    0.000 
#    0.000    0.000    0.000    0.000    0.000    0.000 
#
# Total GULP energy -67011.325222 kJ/mol
# GULP energy per Si atom -5584.277102 kJ/mol
# Density = 2.413074 g / cm^3
# Si number density = 24.185793 Si / 1000 Ang^3
#
#
#
# Elastic Constant Matrix: (Units=GPa)
#
#
# Indices 1 2 3 4 5 6 
#
# 1 117.8159 25.5414 16.8562 0.0000 0.0000 -11.3493
# 2 25.5414 117.8159 16.8562 0.0000 0.0000 11.3493
# 3 16.8562 16.8562 55.1453 0.0000 0.0000 0.0000
# 4 0.0000 0.0000 0.0000 41.4759 0.0000 0.0000
# 5 0.0000 0.0000 0.0000 0.0000 41.4759 0.0000
# 6 -11.3493 11.3493 0.0000 0.0000 0.0000 5.8991
#
#
#
# Elastic Compliance Matrix: (Units=1/GPa)
#
#
# Indices 1 2 3 4 5 6 
#
# 1 0.014045 -0.006529 -0.002297 0.000000 0.000000 0.039583
# 2 -0.006529 0.014045 -0.002297 0.000000 0.000000 -0.039583
# 3 -0.002297 -0.002297 0.019538 0.000000 0.000000 0.000000
# 4 0.000000 0.000000 0.000000 0.024110 0.000000 0.000000
# 5 0.000000 0.000000 0.000000 0.000000 0.024110 0.000000
# 6 0.039583 -0.039583 0.000000 0.000000 0.000000 0.321829
#
#
# Mechanical properties :
#
#
# Convention : Reuss Voigt Hill
#
# Bulk Modulus (GPa) = 39.40013 45.47606 42.43810
# Shear Modulus (GPa) = 11.15109 33.20505 22.17807
#
# Velocity S-wave (km/s) = 2.14956 3.70931 3.03147
# Velocity P-wave (km/s) = 4.74202 6.09827 5.46240
#
# Compressibility (1/GPa) = 0.02538063
#
# Stress axis : x y z
#
# Youngs Moduli (GPa) = 71.19928 71.19928 51.18135
#
# Poissons Ratio (x) = 0.46488 0.11758
# Poissons Ratio (y) = 0.46488 0.11758
# Poissons Ratio (z) = 0.16357 0.16357
#
# Static dielectric constant tensor:
#      x y z
#    x 1.911310 0.000000 0.000000 
#    y 0.000000 1.911310 0.000000 
#    z 0.000000 0.000000 1.901640 
# 
# From -- ./inp_files/205.got.cif
#   From: 2010.05.17/outbox.cif.g08.bks.cpg/sg77_cif.got.tgz:205.got - 2010.06.03 18:44:51.
