data_PCOD9541102
_publ_section_title
;
Structure prediction by ZEFSAII (Michael W. Deem and Ramdas Pophale) SiO2 
 PCOD9541102
Probable space group: P 41
;
_chemical_formula_sum "Si O2"
_cell_formula_units_Z 24
_cell_length_a 9.570811
_cell_length_b 9.570811
_cell_length_c 13.387678
_cell_angle_alpha 90.000000
_cell_angle_beta 90.000000
_cell_angle_gamma 90.000000
_cell_volume 1226.316970
_symmetry_space_group_name_H-M "P 41"
_symmetry_group_IT_number 76
_symmetry_cell_setting 'tetragonal'
loop_
_space_group_symop_operation_xyz
x,y,z
-y,x,1/4+z
-x,-y,1/2+z
y,-x,3/4+z
loop_
_atom_site_type_symbol
_atom_site_label
_atom_site_fract_x
_atom_site_fract_y
_atom_site_fract_z
Si Si1 0.240892 0.263005 0.119810
Si Si2 0.065497 0.749025 0.685685
Si Si3 0.844421 0.512347 0.459768
Si Si4 0.736995 0.759108 0.120791
Si Si5 0.749025 0.065497 0.054916
Si Si6 0.512347 0.844421 0.280833
O O1 0.224886 0.395549 0.046833
O O2 0.382294 0.250249 0.180863
O O3 0.100582 0.259298 0.184652
O O4 0.241585 0.131546 0.044140
O O5 0.119626 0.880374 0.620300
O O6 0.127819 0.615661 0.625110
O O7 0.872181 0.615661 0.365490
O O8 1.000000 0.468429 0.495301
O O9 0.868455 0.758415 0.196461
O O10 0.604451 0.775114 0.193768
O O11 0.749751 0.617706 0.059738
O O12 0.740702 0.899418 0.055949
#
# Coordination Sequence:
#
# PCOD9541102 Si02
#       6
#     4   4   4   4   4   4
#     4  10  19  35  58  82 110 145 183 228 276 325
#     4   9  18  33  55  81 107 142 186 225 272 331
#     4   9  19  34  57  83 111 147 184 225 275 328
#     4  10  19  35  58  82 110 145 183 228 276 325
#     4   9  18  33  55  81 107 142 186 225 272 331
#     4   9  19  34  57  83 111 147 184 225 275 328
#
# _framework density 19.570796999999999
#
# number of rings (size 3 to 8) (size 9 to 14) (size 15 to 20)
#    0.000    2.667    0.000    4.000    0.000    2.667 
#    0.000    0.000    0.000   80.000    0.000    0.000 
#    0.000    0.000    0.000    0.000    0.000    0.000 
#
# Total GULP energy -134011.439348 kJ/mol
# GULP energy per Si atom -5583.809973 kJ/mol
# Density = 1.952625 g / cm^3
# Si number density = 19.570797 Si / 1000 Ang^3
#
#
#
# Elastic Constant Matrix: (Units=GPa)
#
#
# Indices 1 2 3 4 5 6 
#
# 1 95.4904 87.3273 30.1824 0.0000 0.0000 0.0000
# 2 87.3273 95.4904 30.1824 0.0000 0.0000 0.0000
# 3 30.1824 30.1824 44.1601 0.0000 0.0000 0.0000
# 4 0.0000 0.0000 0.0000 12.8649 0.0000 0.0000
# 5 0.0000 0.0000 0.0000 0.0000 12.8649 0.0000
# 6 0.0000 0.0000 0.0000 0.0000 0.0000 10.3792
#
#
#
# Elastic Compliance Matrix: (Units=1/GPa)
#
#
# Indices 1 2 3 4 5 6 
#
# 1 0.064784 -0.057719 -0.004828 0.000000 0.000000 0.000000
# 2 -0.057719 0.064784 -0.004828 0.000000 0.000000 0.000000
# 3 -0.004828 -0.004828 0.029245 0.000000 0.000000 0.000000
# 4 0.000000 0.000000 0.000000 0.077731 0.000000 0.000000
# 5 0.000000 0.000000 0.000000 0.000000 0.077731 0.000000
# 6 0.000000 0.000000 0.000000 0.000000 0.000000 0.096346
#
#
# Mechanical properties :
#
#
# Convention : Reuss Voigt Hill
#
# Bulk Modulus (GPa) = 41.56213 58.94725 50.25469
# Shear Modulus (GPa) = 9.03520 13.05173 11.04347
#
# Velocity S-wave (km/s) = 2.15098 2.58524 2.37804
# Velocity P-wave (km/s) = 5.23945 6.25273 5.76838
#
# Compressibility (1/GPa) = 0.02406036
#
# Stress axis : x y z
#
# Youngs Moduli (GPa) = 15.43602 15.43602 34.19409
#
# Poissons Ratio (x) = 0.89096 0.16510
# Poissons Ratio (y) = 0.89096 0.16510
# Poissons Ratio (z) = 0.07453 0.07453
#
# Static dielectric constant tensor:
#      x y z
#    x 1.682070 0.000000 0.000000 
#    y 0.000000 1.682070 0.000000 
#    z 0.000000 0.000000 1.679370 
# 
# From -- ./inp_files/1019.got.cif
#   From: 2010.05.17/outbox.cif.g08.bks.cpg/sg76_cif.got.tgz:1019.got - 2010.06.03 18:43:17.
