data_PCOD9541265
_publ_section_title
;
Structure prediction by ZEFSAII (Michael W. Deem and Ramdas Pophale) SiO2 
 PCOD9541265
Probable space group: P 41
;
_chemical_formula_sum "Si O2"
_cell_formula_units_Z 16
_cell_length_a 5.025278
_cell_length_b 5.025278
_cell_length_c 24.500209
_cell_angle_alpha 90.000000
_cell_angle_beta 90.000000
_cell_angle_gamma 90.000000
_cell_volume 618.714043
_symmetry_space_group_name_H-M "P 41"
_symmetry_group_IT_number 76
_symmetry_cell_setting 'tetragonal'
loop_
_space_group_symop_operation_xyz
x,y,z
-y,x,1/4+z
-x,-y,1/2+z
y,-x,3/4+z
loop_
_atom_site_type_symbol
_atom_site_label
_atom_site_fract_x
_atom_site_fract_y
_atom_site_fract_z
Si Si1 0.008084 0.386292 0.295460
Si Si2 0.954565 0.470520 0.527188
Si Si3 0.712374 0.338405 0.115118
Si Si4 0.646209 0.235386 0.436142
O O1 0.243309 0.190260 0.312549
O O2 0.108957 0.508452 0.237913
O O3 0.747500 0.208431 0.280766
O O4 0.933403 0.584512 0.343207
O O5 0.910214 0.352029 0.466920
O O6 0.230732 0.518723 0.557204
O O7 0.492355 0.463104 0.154881
O O8 0.991886 0.305093 0.145494
#
# Coordination Sequence:
#
# PCOD9541265 Si02
#       4
#     4   4   4   4
#     4  10  23  46  78 117 164 200 277 325 389 501
#     4  10  23  46  78 117 164 200 277 325 389 501
#     4  12  22  47  90 108 170 213 260 334 420 460
#     4  10  22  47  80 122 154 219 262 332 406 480
#
# _framework density 25.860085000000002
#
# number of rings (size 3 to 8) (size 9 to 14) (size 15 to 20)
#    1.500    0.000    5.000    0.000    0.000    2.000 
#    0.000   10.000    0.000    0.000    0.000    0.000 
#    0.000    0.000    0.000    0.000    0.000    0.000 
#
# Total GULP energy -89345.582696 kJ/mol
# GULP energy per Si atom -5584.098919 kJ/mol
# Density = 2.580123 g / cm^3
# Si number density = 25.860085 Si / 1000 Ang^3
#
#
#
# Elastic Constant Matrix: (Units=GPa)
#
#
# Indices 1 2 3 4 5 6 
#
# 1 126.4145 25.2956 31.1819 0.0000 0.0000 -3.4503
# 2 25.2956 126.4145 31.1819 0.0000 0.0000 3.4503
# 3 31.1819 31.1819 137.6688 0.0000 0.0000 0.0000
# 4 0.0000 0.0000 0.0000 41.8172 0.0000 0.0000
# 5 0.0000 0.0000 0.0000 0.0000 41.8172 0.0000
# 6 -3.4503 3.4503 0.0000 0.0000 0.0000 25.7003
#
#
#
# Elastic Compliance Matrix: (Units=1/GPa)
#
#
# Indices 1 2 3 4 5 6 
#
# 1 0.008625 -0.001356 -0.001646 0.000000 0.000000 0.001340
# 2 -0.001356 0.008625 -0.001646 0.000000 0.000000 -0.001340
# 3 -0.001646 -0.001646 0.008010 0.000000 0.000000 0.000000
# 4 0.000000 0.000000 0.000000 0.023914 0.000000 0.000000
# 5 0.000000 0.000000 0.000000 0.000000 0.023914 0.000000
# 6 0.001340 -0.001340 0.000000 0.000000 0.000000 0.039270
#
#
# Mechanical properties :
#
#
# Convention : Reuss Voigt Hill
#
# Bulk Modulus (GPa) = 62.65254 62.86850 62.76052
# Shear Modulus (GPa) = 39.37829 42.05617 40.71723
#
# Velocity S-wave (km/s) = 3.90647 4.03711 3.97233
# Velocity P-wave (km/s) = 6.68038 6.78932 6.73507
#
# Compressibility (1/GPa) = 0.01596104
#
# Stress axis : x y z
#
# Youngs Moduli (GPa) = 115.94850 115.94850 124.85078
#
# Poissons Ratio (x) = 0.15726 0.20554
# Poissons Ratio (y) = 0.15726 0.20554
# Poissons Ratio (z) = 0.19088 0.19088
#
# Static dielectric constant tensor:
#      x y z
#    x 2.043940 0.000000 0.000000 
#    y 0.000000 2.043940 0.000000 
#    z 0.000000 0.000000 2.095760 
# 
# From -- ./inp_files/1596.got.cif
#   From: 2010.05.17/outbox.cif.g08.bks.cpg/sg76_cif.got.tgz:1596.got - 2010.06.03 18:43:17.
