data_PCOD9541395
_publ_section_title
;
Structure prediction by ZEFSAII (Michael W. Deem and Ramdas Pophale) SiO2 
 PCOD9541395
Probable space group: P 41
;
_chemical_formula_sum "Si O2"
_cell_formula_units_Z 16
_cell_length_a 7.264817
_cell_length_b 7.264817
_cell_length_c 11.080354
_cell_angle_alpha 90.000000
_cell_angle_beta 90.000000
_cell_angle_gamma 90.000000
_cell_volume 584.794115
_symmetry_space_group_name_H-M "P 41"
_symmetry_group_IT_number 76
_symmetry_cell_setting 'tetragonal'
loop_
_space_group_symop_operation_xyz
x,y,z
-y,x,1/4+z
-x,-y,1/2+z
y,-x,3/4+z
loop_
_atom_site_type_symbol
_atom_site_label
_atom_site_fract_x
_atom_site_fract_y
_atom_site_fract_z
Si Si1 0.919705 0.483972 0.080770
Si Si2 0.977764 0.879172 0.099540
Si Si3 0.242337 0.335395 0.221982
Si Si4 0.260608 0.363800 0.965441
O O1 0.755204 0.346580 0.110503
O O2 0.046786 0.428087 0.966006
O O3 0.074378 0.468309 0.188522
O O4 0.858631 0.694402 0.080642
O O5 0.980970 0.937102 0.239308
O O6 0.185270 0.816676 0.067157
O O7 0.266748 0.244016 0.088117
O O8 0.454540 0.381782 0.247090
#
# Coordination Sequence:
#
# PCOD9541395 Si02
#       4
#     4   4   4   4
#     4   9  21  42  70 102 147 193 251 314 380 450
#     4  11  24  47  72 110 152 202 258 320 391 459
#     4   9  20  41  68 100 145 191 248 311 373 451
#     4   9  19  40  68  98 142 194 245 313 372 448
#
# _framework density 27.360059
#
# number of rings (size 3 to 8) (size 9 to 14) (size 15 to 20)
#    1.500    1.000    0.000    1.500    0.000    2.000 
#    9.000    0.000    0.000    0.000    0.000    0.000 
#    0.000    0.000    0.000    0.000    0.000    0.000 
#
# Total GULP energy -89192.930701 kJ/mol
# GULP energy per Si atom -5574.558169 kJ/mol
# Density = 2.729779 g / cm^3
# Si number density = 27.360059 Si / 1000 Ang^3
#
#
#
# Elastic Constant Matrix: (Units=GPa)
#
#
# Indices 1 2 3 4 5 6 
#
# 1 102.0259 30.3580 45.5547 0.0000 0.0000 -0.0821
# 2 30.3580 102.0259 45.5547 0.0000 0.0000 0.0821
# 3 45.5547 45.5547 87.6483 0.0000 0.0000 0.0000
# 4 0.0000 0.0000 0.0000 43.8016 0.0000 0.0000
# 5 0.0000 0.0000 0.0000 0.0000 43.8016 0.0000
# 6 -0.0821 0.0821 0.0000 0.0000 0.0000 17.2235
#
#
#
# Elastic Compliance Matrix: (Units=1/GPa)
#
#
# Indices 1 2 3 4 5 6 
#
# 1 0.012857 -0.001096 -0.006112 0.000000 0.000000 0.000067
# 2 -0.001096 0.012857 -0.006112 0.000000 0.000000 -0.000067
# 3 -0.006112 -0.006112 0.017763 0.000000 0.000000 0.000000
# 4 0.000000 0.000000 0.000000 0.022830 0.000000 0.000000
# 5 0.000000 0.000000 0.000000 0.000000 0.022830 0.000000
# 6 0.000067 -0.000067 0.000000 0.000000 0.000000 0.058061
#
#
# Mechanical properties :
#
#
# Convention : Reuss Voigt Hill
#
# Bulk Modulus (GPa) = 59.40270 59.40389 59.40330
# Shear Modulus (GPa) = 27.86253 32.31418 30.08835
#
# Velocity S-wave (km/s) = 3.19465 3.44040 3.31980
# Velocity P-wave (km/s) = 5.94696 6.12706 6.03768
#
# Compressibility (1/GPa) = 0.01683425
#
# Stress axis : x y z
#
# Youngs Moduli (GPa) = 77.77891 77.77891 56.29652
#
# Poissons Ratio (x) = 0.08528 0.34411
# Poissons Ratio (y) = 0.08528 0.34411
# Poissons Ratio (z) = 0.47542 0.47542
#
# Static dielectric constant tensor:
#      x y z
#    x 2.219490 0.000000 0.000000 
#    y 0.000000 2.219490 0.000000 
#    z 0.000000 0.000000 2.144190 
# 
# From -- ./inp_files/773.got.cif
#   From: 2010.05.17/outbox.cif.g08.bks.cpg/sg76_cif.got.tgz:773.got - 2010.06.03 18:43:17.
