data_PCOD9541103
_publ_section_title
;
Structure prediction by ZEFSAII (Michael W. Deem and Ramdas Pophale) SiO2 
 PCOD9541103
Probable space group: P 41
;
_chemical_formula_sum "Si O2"
_cell_formula_units_Z 28
_cell_length_a 9.653412
_cell_length_b 9.653412
_cell_length_c 14.276290
_cell_angle_alpha 90.000000
_cell_angle_beta 90.000000
_cell_angle_gamma 90.000000
_cell_volume 1330.384098
_symmetry_space_group_name_H-M "P 41"
_symmetry_group_IT_number 76
_symmetry_cell_setting 'tetragonal'
loop_
_space_group_symop_operation_xyz
x,y,z
-y,x,1/4+z
-x,-y,1/2+z
y,-x,3/4+z
loop_
_atom_site_type_symbol
_atom_site_label
_atom_site_fract_x
_atom_site_fract_y
_atom_site_fract_z
Si Si1 0.030249 0.190199 0.131010
Si Si2 0.862580 0.927245 0.898022
Si Si3 0.808063 0.540461 0.193305
Si Si4 0.582898 0.027796 0.122806
Si Si5 0.173456 0.763972 0.465174
Si Si6 0.769448 0.240233 0.241314
Si Si7 0.335270 0.946930 0.258649
O O1 0.927323 0.252562 0.052191
O O2 0.935638 0.222693 0.220648
O O3 0.178253 0.249184 0.096275
O O4 0.042515 0.024174 0.125610
O O5 0.758203 0.934617 0.810008
O O6 0.859741 0.784172 0.954791
O O7 0.822802 0.070235 0.950697
O O8 0.933863 0.541352 0.268205
O O9 0.419978 0.863226 0.339552
O O10 0.715303 0.670595 0.224519
O O11 0.735630 0.396231 0.214516
O O12 0.681905 0.894870 0.130177
O O13 0.446994 0.003945 0.185674
O O14 0.679340 0.145464 0.170967
#
# Coordination Sequence:
#
# PCOD9541103 Si02
#       7
#     4   4   4   4   4   4   4
#     4  11  17  34  62  89 120 156 216 274 330 378
#     4  11  19  37  61  99 132 166 217 290 343 389
#     4  11  23  37  62  93 134 174 219 278 344 403
#     4  11  23  42  66  97 133 176 233 280 341 423
#     4  10  19  35  64  94 124 172 225 271 335 408
#     4  11  22  36  61  92 123 167 220 276 331 403
#     4  11  25  37  66 104 138 171 228 285 352 408
#
# _framework density 21.046552999999999
#
# number of rings (size 3 to 8) (size 9 to 14) (size 15 to 20)
#    0.000    1.143    5.714    2.571    6.000    0.000 
#    0.000    1.429    3.143    0.000    0.000    0.000 
#    0.000    0.000    0.000    0.000    0.000    0.000 
#
# Total GULP energy -156012.019329 kJ/mol
# GULP energy per Si atom -5571.857833 kJ/mol
# Density = 2.099865 g / cm^3
# Si number density = 21.046553 Si / 1000 Ang^3
#
#
#
# Elastic Constant Matrix: (Units=GPa)
#
#
# Indices 1 2 3 4 5 6 
#
# 1 119.0846 18.4490 14.3269 0.0000 0.0000 -0.8153
# 2 18.4490 119.0846 14.3269 0.0000 0.0000 0.8153
# 3 14.3269 14.3269 65.9737 0.0000 0.0000 0.0000
# 4 0.0000 0.0000 0.0000 29.2693 0.0000 0.0000
# 5 0.0000 0.0000 0.0000 0.0000 29.2693 0.0000
# 6 -0.8153 0.8153 0.0000 0.0000 0.0000 -3.7354
#
#
#
# Elastic Compliance Matrix: (Units=1/GPa)
#
#
# Indices 1 2 3 4 5 6 
#
# 1 0.008759 -0.001143 -0.001654 0.000000 0.000000 -0.002161
# 2 -0.001143 0.008759 -0.001654 0.000000 0.000000 0.002161
# 3 -0.001654 -0.001654 0.015876 0.000000 0.000000 0.000000
# 4 0.000000 0.000000 0.000000 0.034165 0.000000 0.000000
# 5 0.000000 0.000000 0.000000 0.000000 0.034165 0.000000
# 6 -0.002161 0.002161 0.000000 0.000000 0.000000 -0.266763
#
#
# Mechanical properties :
#
#
# Convention : Reuss Voigt Hill
#
# Bulk Modulus (GPa) = 40.83019 44.26095 42.54557
# Shear Modulus (GPa) = -33.78980 28.09665 -2.84658
#
# Velocity S-wave (km/s) = -4.01119 3.65770 -1.16424
# Velocity P-wave (km/s) = 1.41803 6.23811 4.29553
#
# Compressibility (1/GPa) = 0.02449168
#
# Stress axis : x y z
#
# Youngs Moduli (GPa) = 114.17268 114.17268 62.98885
#
# Poissons Ratio (x) = 0.13052 0.10417
# Poissons Ratio (y) = 0.13052 0.10417
# Poissons Ratio (z) = 0.18882 0.18882
#
# Static dielectric constant tensor:
#      x y z
#    x 1.794840 0.000000 0.000000 
#    y 0.000000 1.794840 0.000000 
#    z 0.000000 0.000000 1.918150 
# 
# From -- ./inp_files/1281.got.cif
#   From: 2010.05.17/outbox.cif.g08.bks.cpg/sg76_cif.got.tgz:1281.got - 2010.06.03 18:43:17.
