data_PCOD9541758
_publ_section_title
;
Structure prediction by ZEFSAII (Michael W. Deem and Ramdas Pophale) SiO2 
 PCOD9541758
Probable space group: P 43
;
_chemical_formula_sum "Si O2"
_cell_formula_units_Z 24
_cell_length_a 14.916542
_cell_length_b 14.916542
_cell_length_c 5.112153
_cell_angle_alpha 90.000000
_cell_angle_beta 90.000000
_cell_angle_gamma 90.000000
_cell_volume 1137.470530
_symmetry_space_group_name_H-M "P 43"
_symmetry_group_IT_number 78
_symmetry_cell_setting 'tetragonal'
loop_
_space_group_symop_operation_xyz
x,y,z
-y,x,3/4+z
-x,-y,1/2+z
y,-x,1/4+z
loop_
_atom_site_type_symbol
_atom_site_label
_atom_site_fract_x
_atom_site_fract_y
_atom_site_fract_z
Si Si1 0.321234 0.991137 0.598130
Si Si2 0.873853 0.967330 0.297729
Si Si3 0.172741 0.450407 0.454988
Si Si4 0.727025 0.257310 0.282612
Si Si5 0.827814 0.428810 0.441333
Si Si6 0.852335 0.787165 0.544189
O O1 0.391410 0.917906 0.702926
O O2 0.276754 0.937646 0.353640
O O3 0.230680 0.017029 0.750280
O O4 0.378257 0.081598 0.597515
O O5 0.879450 0.890918 0.520730
O O6 0.918382 0.063207 0.339687
O O7 0.249067 0.374861 0.432680
O O8 0.184933 0.492446 0.736819
O O9 0.169170 0.526236 0.228919
O O10 0.752567 0.354364 0.389443
O O11 0.752725 0.192351 0.525634
O O12 0.780236 0.218954 0.031083
#
# Coordination Sequence:
#
# PCOD9541758 Si02
#       6
#     4   4   4   4   4   4
#     4  11  25  42  68  99 145 182 239 285 341 398
#     4  12  25  40  63  98 142 199 246 284 326 393
#     4  11  25  44  69 102 140 175 223 294 348 424
#     4  11  24  47  70 103 138 185 227 286 364 430
#     4  12  25  44  73 104 135 181 229 283 356 418
#     4  11  24  43  67  96 144 194 236 286 335 401
#
# _framework density 21.099447000000001
#
# number of rings (size 3 to 8) (size 9 to 14) (size 15 to 20)
#    0.000    0.667    1.667    7.000    2.333    2.667 
#    0.000    0.000    0.000    2.000    0.000    0.000 
#    0.000    0.000    0.000    0.000    0.000    0.000 
#
# Total GULP energy -133992.214388 kJ/mol
# GULP energy per Si atom -5583.008933 kJ/mol
# Density = 2.105142 g / cm^3
# Si number density = 21.099447 Si / 1000 Ang^3
#
#
#
# Elastic Constant Matrix: (Units=GPa)
#
#
# Indices 1 2 3 4 5 6 
#
# 1 9.0559 92.1922 -7.6447 0.0000 0.0000 -9.3235
# 2 92.1922 9.0559 -7.6447 0.0000 0.0000 9.3235
# 3 -7.6447 -7.6447 75.0663 0.0000 0.0000 0.0000
# 4 0.0000 0.0000 0.0000 2307.4354 0.0000 0.0000
# 5 0.0000 0.0000 0.0000 0.0000 2307.4354 0.0000
# 6 -9.3235 9.3235 0.0000 0.0000 0.0000 14.6142
#
#
#
# Elastic Compliance Matrix: (Units=1/GPa)
#
#
# Indices 1 2 3 4 5 6 
#
# 1 -0.000246 0.010277 0.001022 0.000000 0.000000 -0.006713
# 2 0.010277 -0.000246 0.001022 0.000000 0.000000 0.006713
# 3 0.001022 0.001022 0.013530 0.000000 0.000000 0.000000
# 4 0.000000 0.000000 0.000000 0.000433 0.000000 0.000000
# 5 0.000000 0.000000 0.000000 0.000000 0.000433 0.000000
# 6 -0.006713 0.006713 0.000000 0.000000 0.000000 0.059861
#
#
# Mechanical properties :
#
#
# Convention : Reuss Voigt Hill
#
# Bulk Modulus (GPa) = 26.54084 27.44264 26.99174
# Shear Modulus (GPa) = 81.05698 926.98199 504.01949
#
# Velocity S-wave (km/s) = 6.20484 20.98317 15.47245
# Velocity P-wave (km/s) = 7.99623 24.49678 18.22130
#
# Compressibility (1/GPa) = 0.03767778
#
# Stress axis : x y z
#
# Youngs Moduli (GPa) = -4067.55776 -4067.55776 73.91192
#
# Poissons Ratio (x) = 41.80165 -0.07550
# Poissons Ratio (y) = 41.80165 -0.07550
# Poissons Ratio (z) = 4.15519 4.15519
#
# Static dielectric constant tensor:
#      x y z
#    x 1.173430 0.000000 0.000000 
#    y 0.000000 1.173430 0.000000 
#    z 0.000000 0.000000 1.825330 
# 
# From -- ./inp_files/188.got.cif
#   From: 2010.05.17/outbox.cif.g08.bks.cpg/sg78_cif.got.tgz:188.got - 2010.06.03 18:45:56.
