data_PCOD9541351
_publ_section_title
;
Structure prediction by ZEFSAII (Michael W. Deem and Ramdas Pophale) SiO2 
 PCOD9541351
Probable space group: P 41
;
_chemical_formula_sum "Si O2"
_cell_formula_units_Z 32
_cell_length_a 10.699636
_cell_length_b 10.699636
_cell_length_c 11.037134
_cell_angle_alpha 90.000000
_cell_angle_beta 90.000000
_cell_angle_gamma 90.000000
_cell_volume 1263.555498
_symmetry_space_group_name_H-M "P 41"
_symmetry_group_IT_number 76
_symmetry_cell_setting 'tetragonal'
loop_
_space_group_symop_operation_xyz
x,y,z
-y,x,1/4+z
-x,-y,1/2+z
y,-x,3/4+z
loop_
_atom_site_type_symbol
_atom_site_label
_atom_site_fract_x
_atom_site_fract_y
_atom_site_fract_z
Si Si1 0.556741 0.152051 0.911340
Si Si2 0.345227 0.244635 0.233450
Si Si3 0.691894 0.774573 0.128208
Si Si4 0.327501 0.013059 0.963646
Si Si5 0.581565 0.192068 0.630556
Si Si6 0.935776 0.236967 0.672219
Si Si7 0.632727 0.186693 0.267741
Si Si8 0.143312 0.145241 0.830413
O O1 0.638561 0.277399 0.933030
O O2 0.546178 0.168559 0.768022
O O3 0.423777 0.128295 0.971233
O O4 0.646108 0.032881 0.937464
O O5 0.316161 0.349354 0.336044
O O6 0.266626 0.125946 0.290578
O O7 0.493576 0.223583 0.226352
O O8 0.282907 0.300108 0.111456
O O9 0.556555 0.797215 0.075940
O O10 0.774202 0.817167 0.013269
O O11 0.739478 0.859502 0.237820
O O12 0.344437 0.926044 0.078925
O O13 0.383439 0.932011 0.854286
O O14 0.184948 0.044810 0.930780
O O15 0.027205 0.134347 0.737981
O O16 0.726205 0.150510 0.158362
#
# Coordination Sequence:
#
# PCOD9541351 Si02
#       8
#     4   4   4   4   4   4   4   4
#     4  11  22  37  72 101 135 192 244 299 365 456
#     4  11  24  49  75 109 150 200 248 317 393 471
#     4  11  22  42  68 107 138 189 248 307 375 452
#     4  11  23  45  70 100 140 199 237 309 376 456
#     4  11  23  42  76 102 144 186 253 298 380 467
#     4  11  22  43  71 100 146 187 247 312 369 453
#     4  11  26  49  76 106 157 196 256 322 388 481
#     4  11  26  41  72 107 144 191 255 318 370 456
#
# _framework density 25.325364
#
# number of rings (size 3 to 8) (size 9 to 14) (size 15 to 20)
#    0.000    1.000    5.000    1.500    1.750    2.000 
#    4.500    0.000   44.000    0.000    0.000    0.000 
#    0.000    0.000    0.000    0.000    0.000    0.000 
#
# Total GULP energy -178353.637987 kJ/mol
# GULP energy per Si atom -5573.551187 kJ/mol
# Density = 2.526772 g / cm^3
# Si number density = 25.325364 Si / 1000 Ang^3
#
#
#
# Elastic Constant Matrix: (Units=GPa)
#
#
# Indices 1 2 3 4 5 6 
#
# 1 77.5906 46.5705 20.0324 0.0000 0.0000 6.1921
# 2 46.5705 77.5906 20.0324 0.0000 0.0000 -6.1921
# 3 20.0324 20.0324 93.9869 0.0000 0.0000 0.0000
# 4 0.0000 0.0000 0.0000 38.9023 0.0000 0.0000
# 5 0.0000 0.0000 0.0000 0.0000 38.9023 0.0000
# 6 6.1921 -6.1921 0.0000 0.0000 0.0000 29.1406
#
#
#
# Elastic Compliance Matrix: (Units=1/GPa)
#
#
# Indices 1 2 3 4 5 6 
#
# 1 0.021937 -0.013288 -0.001843 0.000000 0.000000 -0.007485
# 2 -0.013288 0.021937 -0.001843 0.000000 0.000000 0.007485
# 3 -0.001843 -0.001843 0.011426 0.000000 0.000000 0.000000
# 4 0.000000 0.000000 0.000000 0.025705 0.000000 0.000000
# 5 0.000000 0.000000 0.000000 0.000000 0.025705 0.000000
# 6 -0.007485 0.007485 0.000000 0.000000 0.000000 0.037497
#
#
# Mechanical properties :
#
#
# Convention : Reuss Voigt Hill
#
# Bulk Modulus (GPa) = 46.83910 46.93762 46.88836
# Shear Modulus (GPa) = 26.98694 32.22454 29.60574
#
# Velocity S-wave (km/s) = 3.26791 3.57097 3.42280
# Velocity P-wave (km/s) = 5.72486 5.96461 5.84596
#
# Compressibility (1/GPa) = 0.02134968
#
# Stress axis : x y z
#
# Youngs Moduli (GPa) = 45.58485 45.58485 87.52277
#
# Poissons Ratio (x) = 0.60574 0.16134
# Poissons Ratio (y) = 0.60574 0.16134
# Poissons Ratio (z) = 0.08403 0.08403
#
# Static dielectric constant tensor:
#      x y z
#    x 2.101640 0.000000 0.000000 
#    y 0.000000 2.101640 0.000000 
#    z 0.000000 0.000000 2.119610 
# 
# From -- ./inp_files/981.got.cif
#   From: 2010.05.17/outbox.cif.g08.bks.cpg/sg76_cif.got.tgz:981.got - 2010.06.03 18:43:17.
