data_PCOD9541124
_publ_section_title
;
Structure prediction by ZEFSAII (Michael W. Deem and Ramdas Pophale) SiO2 
 PCOD9541124
Probable space group: P 41
;
_chemical_formula_sum "Si O2"
_cell_formula_units_Z 24
_cell_length_a 16.249126
_cell_length_b 16.249126
_cell_length_c 5.121624
_cell_angle_alpha 90.000000
_cell_angle_beta 90.000000
_cell_angle_gamma 90.000000
_cell_volume 1352.283362
_symmetry_space_group_name_H-M "P 41"
_symmetry_group_IT_number 76
_symmetry_cell_setting 'tetragonal'
loop_
_space_group_symop_operation_xyz
x,y,z
-y,x,1/4+z
-x,-y,1/2+z
y,-x,3/4+z
loop_
_atom_site_type_symbol
_atom_site_label
_atom_site_fract_x
_atom_site_fract_y
_atom_site_fract_z
Si Si1 0.606172 0.031243 0.745530
Si Si2 0.767667 0.439106 0.225860
Si Si3 0.408533 0.062364 0.743212
Si Si4 0.692548 0.654836 0.698966
Si Si5 0.499957 0.375896 0.609469
Si Si6 0.796126 0.627252 0.224059
O O1 0.507757 0.049248 0.737993
O O2 0.646173 0.113561 0.862233
O O3 0.627176 0.001796 0.455118
O O4 0.620546 0.958433 0.953150
O O5 0.845902 0.395115 0.096418
O O6 0.699601 0.460098 0.009008
O O7 0.721601 0.380262 0.431205
O O8 0.798233 0.530177 0.308845
O O9 0.654773 0.563617 0.637217
O O10 0.759901 0.672692 0.476213
O O11 0.735131 0.643604 0.979824
O O12 0.562526 0.429236 0.779693
#
# Coordination Sequence:
#
# PCOD9541124 Si02
#       6
#     4   4   4   4   4   4
#     4   9  17  32  47  66  84 110 148 184 232 281
#     4  10  20  32  46  68  91 117 156 200 240 272
#     4   9  18  29  48  66  86 109 142 194 235 274
#     4  11  21  33  47  66  90 119 155 197 239 275
#     4  11  21  33  47  63  88 128 169 208 242 274
#     4  10  21  33  49  65  89 121 154 193 232 278
#
# _framework density 17.747761000000001
#
# number of rings (size 3 to 8) (size 9 to 14) (size 15 to 20)
#    0.000    2.000    0.000    5.000    0.000   12.000 
#    0.000    0.000    0.000    0.000    0.000    0.000 
#    0.000    0.000    0.000    0.000    0.000   46.667 
#
# Total GULP energy -133908.378053 kJ/mol
# GULP energy per Si atom -5579.515752 kJ/mol
# Density = 1.770737 g / cm^3
# Si number density = 17.747761 Si / 1000 Ang^3
#
#
#
# Elastic Constant Matrix: (Units=GPa)
#
#
# Indices 1 2 3 4 5 6 
#
# 1 33.9601 10.1621 -10.6569 0.0000 0.0000 -0.7773
# 2 10.1621 33.9601 -10.6569 0.0000 0.0000 0.7773
# 3 -10.6569 -10.6569 35.6946 0.0000 0.0000 0.0000
# 4 0.0000 0.0000 0.0000 20.2177 0.0000 0.0000
# 5 0.0000 0.0000 0.0000 0.0000 20.2177 0.0000
# 6 -0.7773 0.7773 0.0000 0.0000 0.0000 5.3072
#
#
#
# Elastic Compliance Matrix: (Units=1/GPa)
#
#
# Indices 1 2 3 4 5 6 
#
# 1 0.034455 -0.007971 0.007907 0.000000 0.000000 0.006214
# 2 -0.007971 0.034455 0.007907 0.000000 0.000000 -0.006214
# 3 0.007907 0.007907 0.032737 0.000000 0.000000 0.000000
# 4 0.000000 0.000000 0.000000 0.049462 0.000000 0.000000
# 5 0.000000 0.000000 0.000000 0.000000 0.049462 0.000000
# 6 0.006214 -0.006214 0.000000 0.000000 0.000000 0.190244
#
#
# Mechanical properties :
#
#
# Convention : Reuss Voigt Hill
#
# Bulk Modulus (GPa) = 8.52275 9.03457 8.77866
# Shear Modulus (GPa) = 12.07033 16.79961 14.43497
#
# Velocity S-wave (km/s) = 2.61071 3.07999 2.85501
# Velocity P-wave (km/s) = 3.72831 4.21308 3.97809
#
# Compressibility (1/GPa) = 0.11733295
#
# Stress axis : x y z
#
# Youngs Moduli (GPa) = 29.02332 29.02332 30.54656
#
# Poissons Ratio (x) = 0.23135 -0.24153
# Poissons Ratio (y) = 0.23135 -0.24153
# Poissons Ratio (z) = -0.22949 -0.22949
#
# Static dielectric constant tensor:
#      x y z
#    x 1.635580 0.000000 0.000000 
#    y 0.000000 1.635580 0.000000 
#    z 0.000000 0.000000 1.685740 
# 
# From -- ./inp_files/219.got.cif
#   From: 2010.05.17/outbox.cif.g08.bks.cpg/sg76_cif.got.tgz:219.got - 2010.06.03 18:43:17.
