data_PCOD9541507
_publ_section_title
;
Structure prediction by ZEFSAII (Michael W. Deem and Ramdas Pophale) SiO2 
 PCOD9541507
Probable space group: P 42
;
_chemical_formula_sum "Si O2"
_cell_formula_units_Z 18
_cell_length_a 5.310591
_cell_length_b 5.310591
_cell_length_c 25.972828
_cell_angle_alpha 90.000000
_cell_angle_beta 90.000000
_cell_angle_gamma 90.000000
_cell_volume 732.495481
_symmetry_space_group_name_H-M "P 42"
_symmetry_group_IT_number 77
_symmetry_cell_setting 'tetragonal'
loop_
_space_group_symop_operation_xyz
x,y,z
-y,x,1/2+z
-x,-y,z
y,-x,1/2+z
loop_
_atom_site_type_symbol
_atom_site_label
_atom_site_fract_x
_atom_site_fract_y
_atom_site_fract_z
Si Si1 0.748308 0.825159 0.155000
Si Si2 0.250199 0.161081 0.044467
Si Si3 0.325159 0.751692 0.316361
Si Si4 0.338919 0.750199 0.426894
Si Si5 0.500000 0.000000 0.735680
O O1 0.745202 0.688633 0.098441
O O2 0.788757 0.622495 0.199348
O O3 0.500000 0.000000 0.161007
O O4 0.000000 0.000000 0.156864
O O5 0.500000 0.000000 0.048317
O O6 0.250000 0.250000 0.985680
O O7 0.000000 0.000000 0.048006
O O8 0.500000 0.500000 0.314497
O O9 0.188633 0.754798 0.372920
O O10 0.122495 0.711243 0.272013
O O11 0.500000 0.000000 0.310354
O O12 0.500000 0.500000 0.423354
O O13 0.500000 0.000000 0.423044
#
# Coordination Sequence:
#
# PCOD9541507 Si02
#       5
#     4   4   4   4   2
#     4  10  26  47  70 108 147 194 257 315 386 462
#     4  10  21  41  67 100 141 182 238 311 379 458
#     4  10  26  47  70 108 147 194 257 315 386 462
#     4  10  21  41  67 100 141 182 238 311 379 458
#     4  12  28  44  80  96 148 204 252 320 386 468
#
# _framework density 24.573528
#
# number of rings (size 3 to 8) (size 9 to 14) (size 15 to 20)
#    0.000    1.778    0.000    1.333    9.333    0.000 
#    0.000    0.000    0.000    0.000    0.000    0.000 
#    0.000    0.000    0.000    0.000    0.000    0.000 
#
# Total GULP energy -100543.097487 kJ/mol
# GULP energy per Si atom -5585.727638 kJ/mol
# Density = 2.451760 g / cm^3
# Si number density = 24.573528 Si / 1000 Ang^3
#
#
#
# Elastic Constant Matrix: (Units=GPa)
#
#
# Indices 1 2 3 4 5 6 
#
# 1 127.3092 41.5523 55.8839 0.0000 0.0000 -3.6826
# 2 41.5523 127.3092 55.8839 0.0000 0.0000 3.6826
# 3 55.8839 55.8839 302.0185 0.0000 0.0000 0.0000
# 4 0.0000 0.0000 0.0000 29.2349 0.0000 0.0000
# 5 0.0000 0.0000 0.0000 0.0000 29.2349 0.0000
# 6 -3.6826 3.6826 0.0000 0.0000 0.0000 46.6966
#
#
#
# Elastic Compliance Matrix: (Units=1/GPa)
#
#
# Indices 1 2 3 4 5 6 
#
# 1 0.009244 -0.002496 -0.001249 0.000000 0.000000 0.000926
# 2 -0.002496 0.009244 -0.001249 0.000000 0.000000 -0.000926
# 3 -0.001249 -0.001249 0.003773 0.000000 0.000000 0.000000
# 4 0.000000 0.000000 0.000000 0.034206 0.000000 0.000000
# 5 0.000000 0.000000 0.000000 0.000000 0.034206 0.000000
# 6 0.000926 -0.000926 0.000000 0.000000 0.000000 0.021561
#
#
# Mechanical properties :
#
#
# Convention : Reuss Voigt Hill
#
# Bulk Modulus (GPa) = 81.46394 95.91965 88.69180
# Shear Modulus (GPa) = 39.58429 47.92108 43.75269
#
# Velocity S-wave (km/s) = 4.01789 4.42080 4.22415
# Velocity P-wave (km/s) = 7.39917 8.07319 7.74352
#
# Compressibility (1/GPa) = 0.01227537
#
# Stress axis : x y z
#
# Youngs Moduli (GPa) = 108.17294 108.17294 265.02953
#
# Poissons Ratio (x) = 0.26999 0.33094
# Poissons Ratio (y) = 0.26999 0.33094
# Poissons Ratio (z) = 0.13508 0.13508
#
# Static dielectric constant tensor:
#      x y z
#    x 1.937620 0.000000 0.000000 
#    y 0.000000 1.937620 0.000000 
#    z 0.000000 0.000000 2.123600 
# 
# From -- ./inp_files/1626.got.cif
#   From: 2010.05.17/outbox.cif.g08.bks.cpg/sg77_cif.got.tgz:1626.got - 2010.06.03 18:44:51.
