data_PCOD9541551
_publ_section_title
;
Structure prediction by ZEFSAII (Michael W. Deem and Ramdas Pophale) SiO2 
 PCOD9541551
Probable space group: P 42
;
_chemical_formula_sum "Si O2"
_cell_formula_units_Z 28
_cell_length_a 8.438149
_cell_length_b 8.438149
_cell_length_c 17.644936
_cell_angle_alpha 90.000000
_cell_angle_beta 90.000000
_cell_angle_gamma 90.000000
_cell_volume 1256.361060
_symmetry_space_group_name_H-M "P 42"
_symmetry_group_IT_number 77
_symmetry_cell_setting 'tetragonal'
loop_
_space_group_symop_operation_xyz
x,y,z
-y,x,1/2+z
-x,-y,z
y,-x,1/2+z
loop_
_atom_site_type_symbol
_atom_site_label
_atom_site_fract_x
_atom_site_fract_y
_atom_site_fract_z
Si Si1 0.669763 0.086466 0.636150
Si Si2 0.135435 0.203372 0.574349
Si Si3 0.863934 0.870184 0.283379
Si Si4 0.724625 0.841128 0.430436
Si Si5 0.421348 0.672815 0.371867
Si Si6 0.196363 0.211072 0.994372
Si Si7 0.879781 0.629410 0.731175
O O1 0.805792 0.969458 0.602804
O O2 0.742458 0.142447 0.716149
O O3 0.668979 0.210205 0.566638
O O4 0.500000 0.000000 0.643871
O O5 0.963754 0.215098 0.532638
O O6 0.252187 0.254605 0.507824
O O7 0.161686 0.288893 0.653137
O O8 0.851933 0.793777 0.365872
O O9 0.718311 0.991099 0.283133
O O10 0.000000 0.000000 0.271719
O O11 0.550447 0.800452 0.401896
O O12 0.765739 0.022352 0.454548
O O13 0.500000 0.500000 0.373670
O O14 0.268761 0.687774 0.426845
O O15 0.393097 0.729778 0.285265
O O16 0.000000 0.500000 0.700880
#
# Coordination Sequence:
#
# PCOD9541551 Si02
#       7
#     4   4   4   4   4   4   4
#     4  11  22  38  66 106 141 178 234 307 363 426
#     4  11  24  42  73 106 135 178 252 302 361 432
#     4  12  21  42  71 100 133 186 253 297 351 440
#     4  11  23  43  69 100 135 187 235 299 369 433
#     4  12  27  46  68 101 146 194 243 295 378 456
#     4  11  20  42  73  98 133 184 240 300 358 434
#     4  12  24  47  71  98 141 195 236 298 367 439
#
# _framework density 22.286587000000001
#
# number of rings (size 3 to 8) (size 9 to 14) (size 15 to 20)
#    0.000    0.571    5.714    4.714    0.000    2.286 
#    0.000    1.429    0.000    0.000    0.000    0.000 
#    0.000    0.000    0.000    0.000    0.000    0.000 
#
# Total GULP energy -155889.907379 kJ/mol
# GULP energy per Si atom -5567.496692 kJ/mol
# Density = 2.223586 g / cm^3
# Si number density = 22.286587 Si / 1000 Ang^3
#
#
#
# Elastic Constant Matrix: (Units=GPa)
#
#
# Indices 1 2 3 4 5 6 
#
# 1 58.9075 9.6717 36.9432 0.0000 0.0000 13.1028
# 2 9.6717 58.9075 36.9432 0.0000 0.0000 -13.1028
# 3 36.9432 36.9432 208.2453 0.0000 0.0000 0.0000
# 4 0.0000 0.0000 0.0000 31.2318 0.0000 0.0000
# 5 0.0000 0.0000 0.0000 0.0000 31.2318 0.0000
# 6 13.1028 -13.1028 0.0000 0.0000 0.0000 20.3084
#
#
#
# Elastic Compliance Matrix: (Units=1/GPa)
#
#
# Indices 1 2 3 4 5 6 
#
# 1 0.024480 -0.006453 -0.003198 0.000000 0.000000 -0.019958
# 2 -0.006453 0.024480 -0.003198 0.000000 0.000000 0.019958
# 3 -0.003198 -0.003198 0.005937 0.000000 0.000000 0.000000
# 4 0.000000 0.000000 0.000000 0.032019 0.000000 0.000000
# 5 0.000000 0.000000 0.000000 0.000000 0.032019 0.000000
# 6 -0.019958 0.019958 0.000000 0.000000 0.000000 0.074993
#
#
# Mechanical properties :
#
#
# Convention : Reuss Voigt Hill
#
# Bulk Modulus (GPa) = 34.24783 54.79737 44.52260
# Shear Modulus (GPa) = 21.79996 32.72122 27.26059
#
# Velocity S-wave (km/s) = 3.13096 3.83587 3.50120
# Velocity P-wave (km/s) = 5.33581 6.65278 6.03036
#
# Compressibility (1/GPa) = 0.02919893
#
# Stress axis : x y z
#
# Youngs Moduli (GPa) = 40.84969 40.84969 168.44324
#
# Poissons Ratio (x) = 0.26359 0.53869
# Poissons Ratio (y) = 0.26359 0.53869
# Poissons Ratio (z) = 0.13064 0.13064
#
# Static dielectric constant tensor:
#      x y z
#    x 1.887800 0.000000 0.000000 
#    y 0.000000 1.887800 0.000000 
#    z 0.000000 0.000000 1.886930 
# 
# From -- ./inp_files/1379.got.cif
#   From: 2010.05.17/outbox.cif.g08.bks.cpg/sg77_cif.got.tgz:1379.got - 2010.06.03 18:44:51.
