data_PCOD9541362
_publ_section_title
;
Structure prediction by ZEFSAII (Michael W. Deem and Ramdas Pophale) SiO2 
 PCOD9541362
Probable space group: P 41
;
_chemical_formula_sum "Si O2"
_cell_formula_units_Z 28
_cell_length_a 8.595856
_cell_length_b 8.595856
_cell_length_c 17.123878
_cell_angle_alpha 90.000000
_cell_angle_beta 90.000000
_cell_angle_gamma 90.000000
_cell_volume 1265.261776
_symmetry_space_group_name_H-M "P 41"
_symmetry_group_IT_number 76
_symmetry_cell_setting 'tetragonal'
loop_
_space_group_symop_operation_xyz
x,y,z
-y,x,1/4+z
-x,-y,1/2+z
y,-x,3/4+z
loop_
_atom_site_type_symbol
_atom_site_label
_atom_site_fract_x
_atom_site_fract_y
_atom_site_fract_z
Si Si1 0.506775 0.566855 0.878670
Si Si2 0.175517 0.514184 0.469804
Si Si3 0.745014 0.657081 0.746973
Si Si4 0.762089 0.002018 0.112592
Si Si5 0.992800 0.253076 0.559467
Si Si6 0.434892 0.984828 0.467501
Si Si7 0.760263 0.344151 0.134427
O O1 0.653809 0.531552 0.936805
O O2 0.594998 0.613121 0.799501
O O3 0.388434 0.697251 0.909423
O O4 0.398509 0.416495 0.876114
O O5 0.090401 0.626777 0.408361
O O6 0.173516 0.611820 0.549699
O O7 0.090647 0.354186 0.496269
O O8 0.790115 0.831332 0.768536
O O9 0.886316 0.540096 0.759460
O O10 0.905003 0.888302 0.093411
O O11 0.791796 0.165469 0.155099
O O12 0.698161 0.054750 0.028257
O O13 0.958912 0.359005 0.636043
O O14 0.542299 0.840257 0.446349
#
# Coordination Sequence:
#
# PCOD9541362 Si02
#       7
#     4   4   4   4   4   4   4
#     4  12  22  44  73 100 137 189 244 296 358 443
#     4  11  22  44  68 100 136 193 245 289 356 455
#     4  12  24  43  71 106 140 184 243 310 360 439
#     4  12  24  45  71 104 146 197 240 310 379 435
#     4  11  26  44  69 104 148 191 245 305 381 442
#     4  11  25  43  69 104 136 189 248 292 375 447
#     4  11  25  43  67 102 141 181 239 304 359 445
#
# _framework density 22.129805000000001
#
# number of rings (size 3 to 8) (size 9 to 14) (size 15 to 20)
#    0.000    0.571    4.286    5.143    0.000    2.286 
#    0.000    0.000    0.000    0.000    0.000    0.000 
#    0.000    0.000    0.000    0.000    0.000    0.000 
#
# Total GULP energy -156474.172455 kJ/mol
# GULP energy per Si atom -5588.363302 kJ/mol
# Density = 2.207944 g / cm^3
# Si number density = 22.129805 Si / 1000 Ang^3
#
#
#
# Elastic Constant Matrix: (Units=GPa)
#
#
# Indices 1 2 3 4 5 6 
#
# 1 81.8753 32.0333 11.6745 0.0000 0.0000 -12.4422
# 2 32.0333 81.8753 11.6745 0.0000 0.0000 12.4422
# 3 11.6745 11.6745 50.8881 0.0000 0.0000 0.0000
# 4 0.0000 0.0000 0.0000 30.1416 0.0000 0.0000
# 5 0.0000 0.0000 0.0000 0.0000 30.1416 0.0000
# 6 -12.4422 12.4422 0.0000 0.0000 0.0000 26.8415
#
#
#
# Elastic Compliance Matrix: (Units=1/GPa)
#
#
# Indices 1 2 3 4 5 6 
#
# 1 0.017659 -0.008446 -0.002113 0.000000 0.000000 0.012101
# 2 -0.008446 0.017659 -0.002113 0.000000 0.000000 -0.012101
# 3 -0.002113 -0.002113 0.020621 0.000000 0.000000 0.000000
# 4 0.000000 0.000000 0.000000 0.033177 0.000000 0.000000
# 5 0.000000 0.000000 0.000000 0.000000 0.033177 0.000000
# 6 0.012101 -0.012101 0.000000 0.000000 0.000000 0.048474
#
#
# Mechanical properties :
#
#
# Convention : Reuss Voigt Hill
#
# Bulk Modulus (GPa) = 32.68896 36.15591 34.42243
# Shear Modulus (GPa) = 24.23549 28.04203 26.13876
#
# Velocity S-wave (km/s) = 3.31290 3.56358 3.44052
# Velocity P-wave (km/s) = 5.42561 5.77111 5.60103
#
# Compressibility (1/GPa) = 0.03059137
#
# Stress axis : x y z
#
# Youngs Moduli (GPa) = 56.62982 56.62982 48.49501
#
# Poissons Ratio (x) = 0.47832 0.10249
# Poissons Ratio (y) = 0.47832 0.10249
# Poissons Ratio (z) = 0.11968 0.11968
#
# Static dielectric constant tensor:
#      x y z
#    x 1.854020 0.000000 0.000000 
#    y 0.000000 1.854020 0.000000 
#    z 0.000000 0.000000 1.847920 
# 
# From -- ./inp_files/1238.got.cif
#   From: 2010.05.17/outbox.cif.g08.bks.cpg/sg76_cif.got.tgz:1238.got - 2010.06.03 18:43:17.
