data_PCOD9541841
_publ_section_title
;
Structure prediction by ZEFSAII (Michael W. Deem and Ramdas Pophale) SiO2 
 PCOD9541841
Probable space group: I 4
;
_chemical_formula_sum "Si O2"
_cell_formula_units_Z 60
_cell_length_a 11.748076
_cell_length_b 11.748076
_cell_length_c 21.244106
_cell_angle_alpha 90.000000
_cell_angle_beta 90.000000
_cell_angle_gamma 90.000000
_cell_volume 2932.053932
_symmetry_space_group_name_H-M "I 4"
_symmetry_group_IT_number 79
_symmetry_cell_setting 'tetragonal'
loop_
_space_group_symop_operation_xyz
x,y,z
-y,x,z
-x,-y,z
y,-x,z
1/2+x,1/2+y,1/2+z
1/2-y,1/2+x,1/2+z
1/2-x,1/2-y,1/2+z
1/2+y,1/2-x,1/2+z
loop_
_atom_site_type_symbol
_atom_site_label
_atom_site_fract_x
_atom_site_fract_y
_atom_site_fract_z
Si Si1 0.308785 0.004973 0.008260
Si Si2 0.095992 0.707822 0.583581
Si Si3 0.820206 0.931273 0.216512
Si Si4 0.316609 0.828938 0.612999
Si Si5 0.816419 0.623815 0.841404
Si Si6 0.839265 0.903886 0.453142
Si Si7 0.500000 0.000000 0.403735
Si Si8 0.554760 0.677714 0.391825
O O1 0.362679 0.914307 0.057082
O O2 0.293045 0.121497 0.047051
O O3 0.208934 0.947784 0.966930
O O4 0.397713 0.023526 0.951680
O O5 0.195793 0.765595 0.624377
O O6 0.100162 0.791195 0.523104
O O7 0.966796 0.697912 0.609843
O O8 0.724123 0.898489 0.165875
O O9 0.764521 0.901060 0.283664
O O10 0.937026 0.858545 0.209980
O O11 0.744671 0.651240 0.903797
O O12 0.907823 0.725013 0.842806
O O13 0.891387 0.515373 0.859982
O O14 0.961759 0.850840 0.442085
O O15 0.426894 0.637986 0.380375
#
# Coordination Sequence:
#
# PCOD9541841 Si02
#       8
#     8   8   8   8   8   8   4   8
#     4  11  20  39  64  97 136 177 218 277 331 403
#     4  12  22  38  66 100 139 174 223 282 346 408
#     4  11  27  52  73  95 130 178 239 286 330 403
#     4  12  25  43  67  97 140 182 230 285 339 406
#     4  11  23  42  66  98 132 176 220 284 334 399
#     4  11  21  35  62  98 137 173 212 270 347 407
#     4  10  20  36  62 104 134 164 214 272 342 402
#     4  10  22  38  61  96 136 175 217 268 339 413
#
# _framework density 20.463469
#
# number of rings (size 3 to 8) (size 9 to 14) (size 15 to 20)
#    0.000    0.933    5.333    2.400    0.000    4.533 
#    7.200    1.333    0.000    0.000    0.000    0.000 
#    0.000    0.000    0.000    0.000    0.000    0.000 
#
# Total GULP energy -167347.823592 kJ/mol
# GULP energy per Si atom -5578.260786 kJ/mol
# Density = 2.041689 g / cm^3
# Si number density = 20.463469 Si / 1000 Ang^3
#
#
#
# Elastic Constant Matrix: (Units=GPa)
#
#
# Indices 1 2 3 4 5 6 
#
# 1 79.2932 32.3466 18.4131 0.0000 0.0000 -32.6687
# 2 32.3466 79.2932 18.4131 0.0000 0.0000 32.6687
# 3 18.4131 18.4131 50.4252 0.0000 0.0000 0.0000
# 4 0.0000 0.0000 0.0000 28.0280 0.0000 0.0000
# 5 0.0000 0.0000 0.0000 0.0000 28.0280 0.0000
# 6 -32.6687 32.6687 0.0000 0.0000 0.0000 42.5707
#
#
#
# Elastic Compliance Matrix: (Units=1/GPa)
#
#
# Indices 1 2 3 4 5 6 
#
# 1 -0.151495 0.161679 -0.003719 0.000000 0.000000 -0.240329
# 2 0.161679 -0.151495 -0.003719 0.000000 0.000000 0.240329
# 3 -0.003719 -0.003719 0.022547 0.000000 0.000000 0.000000
# 4 0.000000 0.000000 0.000000 0.035679 0.000000 0.000000
# 5 0.000000 0.000000 0.000000 0.000000 0.035679 0.000000
# 6 -0.240329 0.240329 0.000000 0.000000 0.000000 -0.345365
#
#
# Mechanical properties :
#
#
# Convention : Reuss Voigt Hill
#
# Bulk Modulus (GPa) = 35.66300 38.59523 37.12911
# Shear Modulus (GPa) = -5.85764 29.04795 11.59515
#
# Velocity S-wave (km/s) = -1.69372 3.77172 2.38297
# Velocity P-wave (km/s) = 3.69331 6.15380 5.07493
#
# Compressibility (1/GPa) = 0.02804027
#
# Stress axis : x y z
#
# Youngs Moduli (GPa) = -6.60089 -6.60089 44.35138
#
# Poissons Ratio (x) = 1.06722 0.16493
# Poissons Ratio (y) = 1.06722 0.16493
# Poissons Ratio (z) = -0.02455 -0.02455
#
# Static dielectric constant tensor:
#      x y z
#    x 1.830740 0.000000 0.000000 
#    y 0.000000 1.830740 0.000000 
#    z 0.000000 0.000000 1.717240 
# 
# From -- ./inp_files/1861.got.cif
#   From: 2010.05.17/outbox.cif.g08.bks.cpg/sg79_cif.got.tgz:1861.got - 2010.06.03 18:47:27.
