data_PCOD9541155
_publ_section_title
;
Structure prediction by ZEFSAII (Michael W. Deem and Ramdas Pophale) SiO2 
 PCOD9541155
Probable space group: P 41
;
_chemical_formula_sum "Si O2"
_cell_formula_units_Z 28
_cell_length_a 8.384081
_cell_length_b 8.384081
_cell_length_c 18.795824
_cell_angle_alpha 90.000000
_cell_angle_beta 90.000000
_cell_angle_gamma 90.000000
_cell_volume 1321.211364
_symmetry_space_group_name_H-M "P 41"
_symmetry_group_IT_number 76
_symmetry_cell_setting 'tetragonal'
loop_
_space_group_symop_operation_xyz
x,y,z
-y,x,1/4+z
-x,-y,1/2+z
y,-x,3/4+z
loop_
_atom_site_type_symbol
_atom_site_label
_atom_site_fract_x
_atom_site_fract_y
_atom_site_fract_z
Si Si1 0.323143 0.323143 0.926620
Si Si2 0.727703 0.814847 0.282137
Si Si3 0.663536 0.832453 0.708431
Si Si4 0.203829 0.370569 0.491881
Si Si5 0.796171 0.370569 0.611359
Si Si6 0.832453 0.663536 0.144809
Si Si7 0.185153 0.272297 0.071103
O O1 0.228547 0.273126 0.855243
O O2 0.272472 0.506395 0.940129
O O3 0.506395 0.272472 0.913111
O O4 0.273126 0.228547 0.997997
O O5 0.551706 0.753353 0.260626
O O6 0.826990 0.781031 0.211515
O O7 0.720994 0.000000 0.301620
O O8 0.723408 0.776181 0.786440
O O9 0.781031 0.826990 0.641725
O O10 0.622086 0.017545 0.720849
O O11 0.301218 0.301218 0.426620
O O12 0.223819 0.276592 0.566800
O O13 0.753353 0.551706 0.592614
O O14 0.982455 0.377914 0.632391
#
# Coordination Sequence:
#
# PCOD9541155 Si02
#       7
#     4   4   4   4   4   4   4
#     4  10  20  42  66  92 130 162 214 268 318 380
#     4  11  22  42  65  93 129 165 213 269 320 384
#     4  10  22  42  65  94 127 167 213 264 320 385
#     4  10  22  45  63  91 130 165 213 264 315 386
#     4  10  22  45  63  91 130 165 213 264 315 386
#     4  10  22  42  65  94 127 167 213 264 320 385
#     4  11  22  42  65  93 129 165 213 269 320 384
#
# _framework density 21.192672000000002
#
# number of rings (size 3 to 8) (size 9 to 14) (size 15 to 20)
#    0.000    1.714    5.714    0.857    2.000    3.429 
#   12.857    0.000    0.000    0.000    0.000    0.000 
#    0.000    0.000    0.000    0.000    0.000    0.000 
#
# Total GULP energy -156177.555300 kJ/mol
# GULP energy per Si atom -5577.769832 kJ/mol
# Density = 2.114444 g / cm^3
# Si number density = 21.192672 Si / 1000 Ang^3
#
#
#
# Elastic Constant Matrix: (Units=GPa)
#
#
# Indices 1 2 3 4 5 6 
#
# 1 27.0938 39.2486 55.6355 0.0000 0.0000 0.0000
# 2 39.2486 27.0938 55.6355 0.0000 0.0000 0.0000
# 3 55.6355 55.6355 220.3165 0.0000 0.0000 0.0000
# 4 0.0000 0.0000 0.0000 33.4159 0.0000 0.0000
# 5 0.0000 0.0000 0.0000 0.0000 33.4159 0.0000
# 6 0.0000 0.0000 0.0000 0.0000 0.0000 14.3712
#
#
#
# Elastic Compliance Matrix: (Units=1/GPa)
#
#
# Indices 1 2 3 4 5 6 
#
# 1 -0.028062 0.054210 -0.006603 0.000000 0.000000 0.000000
# 2 0.054210 -0.028062 -0.006603 0.000000 0.000000 0.000000
# 3 -0.006603 -0.006603 0.007874 0.000000 0.000000 0.000000
# 4 0.000000 0.000000 0.000000 0.029926 0.000000 0.000000
# 5 0.000000 0.000000 0.000000 0.000000 0.029926 0.000000
# 6 0.000000 0.000000 0.000000 0.000000 0.000000 0.069584
#
#
# Mechanical properties :
#
#
# Convention : Reuss Voigt Hill
#
# Bulk Modulus (GPa) = 29.62277 63.94926 46.78602
# Shear Modulus (GPa) = 479.37550 24.50624 251.94087
#
# Velocity S-wave (km/s) = 15.05622 3.40421 10.91509
# Velocity P-wave (km/s) = 17.78373 6.75960 13.45276
#
# Compressibility (1/GPa) = 0.03375781
#
# Stress axis : x y z
#
# Youngs Moduli (GPa) = -35.63554 -35.63554 127.00332
#
# Poissons Ratio (x) = 1.93180 0.83861
# Poissons Ratio (y) = 1.93180 0.83861
# Poissons Ratio (z) = -0.23530 -0.23530
#
# Static dielectric constant tensor:
#      x y z
#    x 1.775240 0.000000 0.000000 
#    y 0.000000 1.775240 0.000000 
#    z 0.000000 0.000000 1.833170 
# 
# From -- ./inp_files/1269.got.cif
#   From: 2010.05.17/outbox.cif.g08.bks.cpg/sg76_cif.got.tgz:1269.got - 2010.06.03 18:43:17.
