data_PCOD9541817
_publ_section_title
;
Structure prediction by ZEFSAII (Michael W. Deem and Ramdas Pophale) SiO2 
 PCOD9541817
Probable space group: I 4
;
_chemical_formula_sum "Si O2"
_cell_formula_units_Z 50
_cell_length_a 10.497974
_cell_length_b 10.497974
_cell_length_c 24.065831
_cell_angle_alpha 90.000000
_cell_angle_beta 90.000000
_cell_angle_gamma 90.000000
_cell_volume 2652.234062
_symmetry_space_group_name_H-M "I 4"
_symmetry_group_IT_number 79
_symmetry_cell_setting 'tetragonal'
loop_
_space_group_symop_operation_xyz
x,y,z
-y,x,z
-x,-y,z
y,-x,z
1/2+x,1/2+y,1/2+z
1/2-y,1/2+x,1/2+z
1/2-x,1/2-y,1/2+z
1/2+y,1/2-x,1/2+z
loop_
_atom_site_type_symbol
_atom_site_label
_atom_site_fract_x
_atom_site_fract_y
_atom_site_fract_z
Si Si1 0.046674 0.285778 0.239320
Si Si2 0.965191 0.690841 0.769232
Si Si3 0.712959 0.476889 0.391989
Si Si4 0.000000 0.000000 0.268859
Si Si5 0.784460 0.014512 0.013805
Si Si6 0.816706 0.092442 0.659297
Si Si7 0.353448 0.036392 0.125277
O O1 0.922514 0.365901 0.257511
O O2 0.030662 0.269389 0.172901
O O3 0.154328 0.390247 0.252286
O O4 0.057923 0.147548 0.266002
O O5 0.965089 0.713668 0.834693
O O6 0.919436 0.798834 0.726179
O O7 0.634516 0.608214 0.391118
O O8 0.778044 0.474990 0.452559
O O9 0.689229 0.008971 0.065031
O O10 0.870324 0.886186 0.017540
O O11 0.688835 0.151489 0.633849
O O12 0.944369 0.165398 0.642274
O O13 0.500000 0.000000 0.136915
#
# Coordination Sequence:
#
# PCOD9541817 Si02
#       7
#     8   8   8   2   8   8   8
#     4  10  24  38  52  88 121 158 198 240 296 373
#     4  10  19  38  60  81 121 155 192 245 302 357
#     4   9  18  34  59  90 111 144 200 255 301 351
#     4  12  28  36  60  92 124 164 208 244 320 374
#     4   9  21  37  58  87 115 145 195 253 304 352
#     4  10  21  34  54  84 112 149 189 232 289 355
#     4  11  22  37  56  81 119 154 195 243 294 365
#
# _framework density 18.852032000000001
#
# number of rings (size 3 to 8) (size 9 to 14) (size 15 to 20)
#    0.000    2.080    3.200    1.920   11.200    1.280 
#    2.880    0.000    0.000    0.000    0.000    0.000 
#    0.000    0.000    0.000    0.000    0.000    0.000 
#
# Total GULP energy -139179.711848 kJ/mol
# GULP energy per Si atom -5567.188474 kJ/mol
# Density = 1.880912 g / cm^3
# Si number density = 18.852032 Si / 1000 Ang^3
#
#
#
# Elastic Constant Matrix: (Units=GPa)
#
#
# Indices 1 2 3 4 5 6 
#
# 1 -288.2300 335.5779 1.7282 0.0000 0.0000 -73.4473
# 2 335.5779 -288.2300 1.7282 0.0000 0.0000 73.4473
# 3 1.7282 1.7282 117.5814 0.0000 0.0000 0.0000
# 4 0.0000 0.0000 0.0000 16.8630 0.0000 0.0000
# 5 0.0000 0.0000 0.0000 0.0000 16.8630 0.0000
# 6 -73.4473 73.4473 0.0000 0.0000 0.0000 0.0500
#
#
#
# Elastic Compliance Matrix: (Units=1/GPa)
#
#
# Indices 1 2 3 4 5 6 
#
# 1 0.010569 0.010574 -0.000311 0.000000 0.000000 -0.006788
# 2 0.010574 0.010569 -0.000311 0.000000 0.000000 0.006788
# 3 -0.000311 -0.000311 0.008514 0.000000 0.000000 0.000000
# 4 0.000000 0.000000 0.000000 0.059301 0.000000 0.000000
# 5 0.000000 0.000000 0.000000 0.000000 0.059301 0.000000
# 6 -0.006788 0.006788 0.000000 0.000000 0.000000 0.057652
#
#
# Mechanical properties :
#
#
# Convention : Reuss Voigt Hill
#
# Bulk Modulus (GPa) = 20.17888 24.35445 22.26666
# Shear Modulus (GPa) = 24.68874 -46.43898 -10.87512
#
# Velocity S-wave (km/s) = 3.62277 -4.96859 -2.40441
# Velocity P-wave (km/s) = 5.31285 4.46868 2.03191
#
# Compressibility (1/GPa) = 0.04955677
#
# Stress axis : x y z
#
# Youngs Moduli (GPa) = 94.61476 94.61476 117.45522
#
# Poissons Ratio (x) = -1.00044 0.03650
# Poissons Ratio (y) = -1.00044 0.03650
# Poissons Ratio (z) = 0.02940 0.02940
#
# Static dielectric constant tensor:
#      x y z
#    x 1.677040 0.000000 0.000000 
#    y 0.000000 1.677040 0.000000 
#    z 0.000000 0.000000 1.677700 
# 
# From -- ./inp_files/1787.got.cif
#   From: 2010.05.17/outbox.cif.g08.bks.cpg/sg79_cif.got.tgz:1787.got - 2010.06.03 18:47:27.
