data_PCOD9542531
_publ_section_title
;
Structure prediction by ZEFSAII (Michael W. Deem and Ramdas Pophale) SiO2 
 PCOD9542531
Probable space group: P -4
;
_chemical_formula_sum "Si O2"
_cell_formula_units_Z 12
_cell_length_a 7.411825
_cell_length_b 7.411825
_cell_length_c 10.947177
_cell_angle_alpha 90.000000
_cell_angle_beta 90.000000
_cell_angle_gamma 90.000000
_cell_volume 601.384809
_symmetry_space_group_name_H-M "P -4"
_symmetry_group_IT_number 81
_symmetry_cell_setting 'tetragonal'
loop_
_space_group_symop_operation_xyz
x,y,z
y,-x,-z
-x,-y,z
-y,x,-z
loop_
_atom_site_type_symbol
_atom_site_label
_atom_site_fract_x
_atom_site_fract_y
_atom_site_fract_z
Si Si1 0.658940 0.739896 0.981379
Si Si2 0.976354 0.785962 0.817498
Si Si3 0.991494 0.292227 0.540397
O O1 0.708160 0.900290 0.073528
O O2 0.723651 0.552452 0.041391
O O3 0.771047 0.754350 0.857429
O O4 0.024924 0.705969 0.687211
O O5 0.000000 0.000000 0.811713
O O6 0.000000 0.500000 0.496197
O O7 0.824294 0.171902 0.490487
#
# Coordination Sequence:
#
# PCOD9542531 Si02
#       3
#     4   4   4
#     4  11  23  38  62  96 129 163 202 250 312 377
#     4  12  22  41  66  90 125 168 206 254 314 375
#     4  11  25  46  68  95 128 170 221 269 320 378
#
# _framework density 19.953945000000001
#
# number of rings (size 3 to 8) (size 9 to 14) (size 15 to 20)
#    0.000    0.667    6.667    3.000    0.000    3.333 
#    0.000    0.000    0.000    0.000    0.000    0.000 
#    0.000    0.000    0.000    0.000    0.000    0.000 
#
# Total GULP energy -67056.190605 kJ/mol
# GULP energy per Si atom -5588.015884 kJ/mol
# Density = 1.990853 g / cm^3
# Si number density = 19.953945 Si / 1000 Ang^3
#
#
#
# Elastic Constant Matrix: (Units=GPa)
#
#
# Indices 1 2 3 4 5 6 
#
# 1 131.3077 31.6896 -7.7258 0.0000 0.0000 1.0968
# 2 31.6896 131.3077 -7.7258 0.0000 0.0000 -1.0968
# 3 -7.7258 -7.7258 42.2362 0.0000 0.0000 0.0000
# 4 0.0000 0.0000 0.0000 1.1094 0.0000 0.0000
# 5 0.0000 0.0000 0.0000 0.0000 1.1094 0.0000
# 6 1.0968 -1.0968 0.0000 0.0000 0.0000 21.0691
#
#
#
# Elastic Compliance Matrix: (Units=1/GPa)
#
#
# Indices 1 2 3 4 5 6 
#
# 1 0.008147 -0.001903 0.001142 0.000000 0.000000 -0.000523
# 2 -0.001903 0.008147 0.001142 0.000000 0.000000 0.000523
# 3 0.001142 0.001142 0.024094 0.000000 0.000000 0.000000
# 4 0.000000 0.000000 0.000000 0.901362 0.000000 0.000000
# 5 0.000000 0.000000 0.000000 0.000000 0.901362 0.000000
# 6 -0.000523 0.000523 0.000000 0.000000 0.000000 0.047517
#
#
# Mechanical properties :
#
#
# Convention : Reuss Voigt Hill
#
# Bulk Modulus (GPa) = 24.30199 37.48086 30.89143
# Shear Modulus (GPa) = 2.62663 23.89849 13.26256
#
# Velocity S-wave (km/s) = 1.14856 3.46451 2.58089
# Velocity P-wave (km/s) = 3.73690 5.90154 4.93926
#
# Compressibility (1/GPa) = 0.04114889
#
# Stress axis : x y z
#
# Youngs Moduli (GPa) = 122.75064 122.75064 41.50383
#
# Poissons Ratio (x) = 0.23363 -0.04740
# Poissons Ratio (y) = 0.23363 -0.04740
# Poissons Ratio (z) = -0.14018 -0.14018
#
# Static dielectric constant tensor:
#      x y z
#    x 1.721770 0.000000 0.000000 
#    y 0.000000 1.721770 0.000000 
#    z 0.000000 0.000000 1.670810 
# 
# From -- ./inp_files/994.got.cif
#   From: 2010.05.17/outbox.cif.g08.bks.cpg/sg81_cif.got.tgz:994.got - 2010.06.03 18:51:07.
