data_PCOD9542726
_publ_section_title
;
Structure prediction by ZEFSAII (Michael W. Deem and Ramdas Pophale) SiO2 
 PCOD9542726
Probable space group: I -4 
;
_chemical_formula_sum "Si O2"
_cell_formula_units_Z 48
_cell_length_a 9.150546
_cell_length_b 9.150546
_cell_length_c 27.645754
_cell_angle_alpha 90.000000
_cell_angle_beta 90.000000
_cell_angle_gamma 90.000000
_cell_volume 2314.847878
_symmetry_space_group_name_H-M "I -4 "
_symmetry_group_IT_number 82
_symmetry_cell_setting 'tetragonal'
loop_
_space_group_symop_operation_xyz
x,y,z
y,-x,-z
-x,-y,z
-y,x,-z
1/2+x,1/2+y,1/2+z
1/2+y,1/2-x,1/2-z
1/2-x,1/2-y,1/2+z
1/2-y,1/2+x,1/2-z
loop_
_atom_site_type_symbol
_atom_site_label
_atom_site_fract_x
_atom_site_fract_y
_atom_site_fract_z
Si Si1 0.692610 0.896405 0.889153
Si Si2 0.728469 0.882187 0.627332
Si Si3 0.679432 0.686861 0.717991
Si Si4 0.662286 0.348002 0.700398
Si Si5 0.103685 0.780077 0.004716
Si Si6 0.828228 0.097618 0.467991
O O1 0.549625 0.822924 0.865617
O O2 0.825157 0.840918 0.856971
O O3 0.709172 0.856871 0.944284
O O4 0.685841 0.073027 0.890197
O O5 0.753427 0.790690 0.676699
O O6 0.854397 0.882844 0.585798
O O7 0.701444 0.515013 0.710140
O O8 0.503038 0.699552 0.715589
O O9 0.744085 0.733158 0.769216
O O10 0.167578 0.665487 0.967302
O O11 0.933904 0.814434 0.000753
O O12 0.935471 0.172485 0.508801
#
# Coordination Sequence:
#
# PCOD9542726 Si02
#       6
#     8   8   8   8   8   8
#     4  10  20  37  63  92 121 163 209 256 302 367
#     4  10  20  38  63  88 124 164 209 254 305 366
#     4  10  22  40  65  94 124 162 203 259 309 371
#     4  10  22  40  65  93 126 159 207 255 312 370
#     4  11  23  36  62  91 125 165 207 255 307 359
#     4  11  23  40  59  87 125 167 208 254 304 364
#
# _framework density 20.735702
#
# number of rings (size 3 to 8) (size 9 to 14) (size 15 to 20)
#    0.000    1.667    3.333    1.000    2.333    4.000 
#    3.000    1.667    0.000    0.000    0.000    0.000 
#    0.000    0.000    0.000    0.000    0.000    0.000 
#
# Total GULP energy -133675.155686 kJ/mol
# GULP energy per Si atom -5569.798154 kJ/mol
# Density = 2.068851 g / cm^3
# Si number density = 20.735702 Si / 1000 Ang^3
#
#
#
# Elastic Constant Matrix: (Units=GPa)
#
#
# Indices 1 2 3 4 5 6 
#
# 1 21.6389 17.0877 3.6375 0.0000 0.0000 -0.6815
# 2 17.0877 21.6389 3.6375 0.0000 0.0000 0.6815
# 3 3.6375 3.6375 31.3411 0.0000 0.0000 0.0000
# 4 0.0000 0.0000 0.0000 29.1694 0.0000 0.0000
# 5 0.0000 0.0000 0.0000 0.0000 29.1694 0.0000
# 6 -0.6815 0.6815 0.0000 0.0000 0.0000 21.7156
#
#
#
# Elastic Compliance Matrix: (Units=1/GPa)
#
#
# Indices 1 2 3 4 5 6 
#
# 1 0.124102 -0.097705 -0.003064 0.000000 0.000000 0.006961
# 2 -0.097705 0.124103 -0.003064 0.000000 0.000000 -0.006961
# 3 -0.003064 -0.003064 0.032618 0.000000 0.000000 0.000000
# 4 0.000000 0.000000 0.000000 0.034283 0.000000 0.000000
# 5 0.000000 0.000000 0.000000 0.000000 0.034283 0.000000
# 6 0.006961 -0.006961 0.000000 0.000000 0.000000 0.046487
#
#
# Mechanical properties :
#
#
# Convention : Reuss Voigt Hill
#
# Bulk Modulus (GPa) = 13.66897 13.70491 13.68694
# Shear Modulus (GPa) = 7.96272 19.36128 13.66200
#
# Velocity S-wave (km/s) = 1.96174 3.05899 2.56962
# Velocity P-wave (km/s) = 3.42601 4.37039 3.92669
#
# Compressibility (1/GPa) = 0.07315842
#
# Stress axis : x y z
#
# Youngs Moduli (GPa) = 8.05786 8.05785 30.65783
#
# Poissons Ratio (x) = 0.78729 0.09393
# Poissons Ratio (y) = 0.78729 0.09393
# Poissons Ratio (z) = 0.02469 0.02469
#
# Static dielectric constant tensor:
#      x y z
#    x 1.736070 0.000000 0.000000 
#    y 0.000000 1.736070 0.000000 
#    z 0.000000 0.000000 1.735850 
# 
# From -- ./inp_files/4021.got.cif
#   From: 2010.05.17/outbox.cif.g08.bks.cpg/sg82_3_cif.got.tgz:4021.got - 2010.06.03 18:52:26.
