data_PCOD9542491
_publ_section_title
;
Structure prediction by ZEFSAII (Michael W. Deem and Ramdas Pophale) SiO2 
 PCOD9542491
Probable space group: P -4
;
_chemical_formula_sum "Si O2"
_cell_formula_units_Z 17
_cell_length_a 8.771764
_cell_length_b 8.771764
_cell_length_c 9.261975
_cell_angle_alpha 90.000000
_cell_angle_beta 90.000000
_cell_angle_gamma 90.000000
_cell_volume 712.651956
_symmetry_space_group_name_H-M "P -4"
_symmetry_group_IT_number 81
_symmetry_cell_setting 'tetragonal'
loop_
_space_group_symop_operation_xyz
x,y,z
y,-x,-z
-x,-y,z
-y,x,-z
loop_
_atom_site_type_symbol
_atom_site_label
_atom_site_fract_x
_atom_site_fract_y
_atom_site_fract_z
Si Si1 0.302222 0.606513 0.232130
Si Si2 0.000000 0.000000 0.000000
Si Si3 0.500000 0.000000 0.673454
Si Si4 0.044791 0.331259 0.846507
Si Si5 0.500000 0.500000 0.500000
Si Si6 0.757293 0.025482 0.468963
Si Si7 0.500000 0.500000 0.000000
O O1 0.123158 0.588250 0.237051
O O2 0.342381 0.774075 0.179222
O O3 0.378464 0.572975 0.387800
O O4 0.362785 0.488570 0.112456
O O5 0.006971 0.168113 0.922051
O O6 0.377744 0.919490 0.570485
O O7 0.000000 0.500000 0.903753
O O8 0.976520 0.308690 0.684776
O O9 0.843782 0.884011 0.543522
#
# Coordination Sequence:
#
# PCOD9542491 Si02
#       7
#     4   1   2   4   1   4   1
#     4  11  26  48  76 117 148 214 257 335 400 486
#     4  12  32  56  74 120 160 224 280 334 396 516
#     4  12  24  42  82 112 152 190 260 328 412 468
#     4  12  28  51  80 110 159 211 269 329 409 486
#     4  10  24  50  76 114 160 190 280 326 404 486
#     4  11  23  44  73 113 148 193 255 334 401 473
#     4  10  28  50  72 102 160 190 264 318 388 482
#
# _framework density 23.854562999999999
#
# number of rings (size 3 to 8) (size 9 to 14) (size 15 to 20)
#    0.000    0.706    3.529    2.824    3.294    3.765 
#    0.000    0.000    0.000    0.000    0.000    0.000 
#    0.000    0.000    0.000    0.000    0.000    0.000 
#
# Total GULP energy -95000.846445 kJ/mol
# GULP energy per Si atom -5588.285085 kJ/mol
# Density = 2.380027 g / cm^3
# Si number density = 23.854563 Si / 1000 Ang^3
#
#
#
# Elastic Constant Matrix: (Units=GPa)
#
#
# Indices 1 2 3 4 5 6 
#
# 1 126.8708 34.2098 34.0601 0.0000 0.0000 2.3254
# 2 34.2098 126.8708 34.0601 0.0000 0.0000 -2.3254
# 3 34.0601 34.0601 111.6169 0.0000 0.0000 0.0000
# 4 0.0000 0.0000 0.0000 8.5261 0.0000 0.0000
# 5 0.0000 0.0000 0.0000 0.0000 8.5261 0.0000
# 6 2.3254 -2.3254 0.0000 0.0000 0.0000 38.3520
#
#
#
# Elastic Compliance Matrix: (Units=1/GPa)
#
#
# Indices 1 2 3 4 5 6 
#
# 1 0.008976 -0.001849 -0.002175 0.000000 0.000000 -0.000656
# 2 -0.001849 0.008976 -0.002175 0.000000 0.000000 0.000656
# 3 -0.002175 -0.002175 0.010287 0.000000 0.000000 0.000000
# 4 0.000000 0.000000 0.000000 0.117287 0.000000 0.000000
# 5 0.000000 0.000000 0.000000 0.000000 0.117287 0.000000
# 6 -0.000656 0.000656 0.000000 0.000000 0.000000 0.026154
#
#
# Mechanical properties :
#
#
# Convention : Reuss Voigt Hill
#
# Bulk Modulus (GPa) = 63.12285 63.33540 63.22912
# Shear Modulus (GPa) = 16.30551 28.61607 22.46079
#
# Velocity S-wave (km/s) = 2.61729 3.46729 3.07183
# Velocity P-wave (km/s) = 5.97098 6.52976 6.25661
#
# Compressibility (1/GPa) = 0.01584212
#
# Stress axis : x y z
#
# Youngs Moduli (GPa) = 111.40268 111.40268 97.21299
#
# Poissons Ratio (x) = 0.20593 0.21145
# Poissons Ratio (y) = 0.20593 0.21145
# Poissons Ratio (z) = 0.24231 0.24231
#
# Static dielectric constant tensor:
#      x y z
#    x 1.956280 0.000000 0.000000 
#    y 0.000000 1.956280 0.000000 
#    z 0.000000 0.000000 1.929960 
# 
# From -- ./inp_files/663.got.cif
#   From: 2010.05.17/outbox.cif.g08.bks.cpg/sg81_cif.got.tgz:663.got - 2010.06.03 18:51:07.
