data_PCOD9542626
_publ_section_title
;
Structure prediction by ZEFSAII (Michael W. Deem and Ramdas Pophale) SiO2 
 PCOD9542626
Probable space group: I -4 
;
_chemical_formula_sum "Si O2"
_cell_formula_units_Z 40
_cell_length_a 8.394235
_cell_length_b 8.394235
_cell_length_c 29.148218
_cell_angle_alpha 90.000000
_cell_angle_beta 90.000000
_cell_angle_gamma 90.000000
_cell_volume 2053.876168
_symmetry_space_group_name_H-M "I -4 "
_symmetry_group_IT_number 82
_symmetry_cell_setting 'tetragonal'
loop_
_space_group_symop_operation_xyz
x,y,z
y,-x,-z
-x,-y,z
-y,x,-z
1/2+x,1/2+y,1/2+z
1/2+y,1/2-x,1/2-z
1/2-x,1/2-y,1/2+z
1/2-y,1/2+x,1/2-z
loop_
_atom_site_type_symbol
_atom_site_label
_atom_site_fract_x
_atom_site_fract_y
_atom_site_fract_z
Si Si1 0.000000 0.000000 0.683854
Si Si2 0.760424 0.251140 0.349655
Si Si3 0.586479 0.269593 0.443339
Si Si4 0.894502 0.742501 0.245584
Si Si5 0.000000 0.500000 0.390212
Si Si6 0.254316 0.118468 0.957534
O O1 0.098838 0.127837 0.655557
O O2 0.876051 0.095148 0.715834
O O3 0.644623 0.226593 0.392705
O O4 0.694795 0.304172 0.299887
O O5 0.877123 0.398643 0.361149
O O6 0.667635 0.444174 0.452867
O O7 0.638951 0.183926 0.490454
O O8 0.394673 0.270781 0.444828
O O9 0.807537 0.580013 0.261895
O O10 0.898980 0.617703 0.422533
#
# Coordination Sequence:
#
# PCOD9542626 Si02
#       6
#     4   8   8   8   4   8
#     4  10  20  34  52  75 106 129 162 218 268 302
#     4  10  19  33  53  76  98 133 173 206 251 311
#     4   8  15  30  51  75 104 133 170 208 249 297
#     4   9  18  34  55  75  98 130 171 215 254 297
#     4  10  18  30  55  78  98 130 177 212 242 296
#     4   8  15  29  50  77 104 132 167 214 247 282
#
# _framework density 19.475370999999999
#
# number of rings (size 3 to 8) (size 9 to 14) (size 15 to 20)
#    0.000    3.000    0.000    3.600    0.000    3.200 
#    0.000    6.000    0.000   24.000    0.000    0.000 
#    0.000    0.000    0.000    0.000    0.000    0.000 
#
# Total GULP energy -111375.559932 kJ/mol
# GULP energy per Si atom -5568.777997 kJ/mol
# Density = 1.943104 g / cm^3
# Si number density = 19.475371 Si / 1000 Ang^3
#
#
#
# Elastic Constant Matrix: (Units=GPa)
#
#
# Indices 1 2 3 4 5 6 
#
# 1 33.0535 3.6701 32.1604 0.0000 0.0000 5.9731
# 2 3.6701 33.0535 32.1603 0.0000 0.0000 -5.9731
# 3 32.1604 32.1603 114.0475 0.0000 0.0000 0.0000
# 4 0.0000 0.0000 0.0000 10.5114 0.0000 0.0000
# 5 0.0000 0.0000 0.0000 0.0000 10.5114 0.0000
# 6 5.9731 -5.9731 0.0000 0.0000 0.0000 11.7418
#
#
#
# Elastic Compliance Matrix: (Units=1/GPa)
#
#
# Indices 1 2 3 4 5 6 
#
# 1 0.048356 0.005449 -0.015172 0.000000 0.000000 -0.021827
# 2 0.005449 0.048356 -0.015172 0.000000 0.000000 0.021827
# 3 -0.015172 -0.015172 0.017325 0.000000 0.000000 0.000000
# 4 0.000000 0.000000 0.000000 0.095135 0.000000 0.000000
# 5 0.000000 0.000000 0.000000 0.000000 0.095135 0.000000
# 6 -0.021827 0.021827 0.000000 0.000000 0.000000 0.107372
#
#
# Mechanical properties :
#
#
# Convention : Reuss Voigt Hill
#
# Bulk Modulus (GPa) = 15.56543 35.12623 25.34583
# Shear Modulus (GPa) = 10.35443 14.03052 12.19247
#
# Velocity S-wave (km/s) = 2.30829 2.68698 2.50481
# Velocity P-wave (km/s) = 3.88767 5.26326 4.62687
#
# Compressibility (1/GPa) = 0.06424494
#
# Stress axis : x y z
#
# Youngs Moduli (GPa) = 20.68007 20.68005 57.71920
#
# Poissons Ratio (x) = -0.11268 0.87574
# Poissons Ratio (y) = -0.11269 0.87574
# Poissons Ratio (z) = 0.31377 0.31377
#
# Static dielectric constant tensor:
#      x y z
#    x 1.691930 0.000000 0.000000 
#    y 0.000000 1.691930 0.000000 
#    z 0.000000 0.000000 1.715800 
# 
# From -- ./inp_files/3716.got.cif
#   From: 2010.05.17/outbox.cif.g08.bks.cpg/sg82_2_cif.got.tgz:3716.got - 2010.06.03 18:52:26.
