data_PCOD9542322
_publ_section_title
;
Structure prediction by ZEFSAII (Michael W. Deem and Ramdas Pophale) SiO2 
 PCOD9542322
Probable space group: P -4
;
_chemical_formula_sum "Si O2"
_cell_formula_units_Z 23
_cell_length_a 14.370030
_cell_length_b 14.370030
_cell_length_c 7.060143
_cell_angle_alpha 90.000000
_cell_angle_beta 90.000000
_cell_angle_gamma 90.000000
_cell_volume 1457.903730
_symmetry_space_group_name_H-M "P -4"
_symmetry_group_IT_number 81
_symmetry_cell_setting 'tetragonal'
loop_
_space_group_symop_operation_xyz
x,y,z
y,-x,-z
-x,-y,z
-y,x,-z
loop_
_atom_site_type_symbol
_atom_site_label
_atom_site_fract_x
_atom_site_fract_y
_atom_site_fract_z
Si Si1 0.000000 0.500000 0.528482
Si Si2 0.300283 0.500000 0.317476
Si Si3 0.500000 0.197311 0.283356
Si Si4 0.000000 0.393130 0.157920
Si Si5 0.500000 0.500000 0.500000
Si Si6 0.648440 0.205736 0.960292
Si Si7 0.351560 0.205736 0.960292
O O1 0.908981 0.500000 0.652270
O O2 0.000000 0.587634 0.383755
O O3 0.255516 0.500000 0.525246
O O4 0.409905 0.500000 0.361942
O O5 0.261601 0.588928 0.199788
O O6 0.261601 0.411073 0.199787
O O7 0.588355 0.215593 0.151291
O O8 0.411646 0.215593 0.151290
O O9 0.000000 0.500000 0.080518
O O10 0.902956 0.348307 0.095908
O O11 0.097044 0.348307 0.095909
O O12 0.746289 0.253711 0.999999
#
# Coordination Sequence:
#
# PCOD9542322 Si02
#       7
#     2   4   4   4   1   4   4
#     4  10  16  34  64  82 102 144 190 242 274 304
#     4  11  21  38  47  79 112 156 187 222 252 338
#     4  11  18  34  60  76 111 149 185 227 281 313
#     4  10  17  40  57  78 112 136 192 241 265 320
#     4  12  24  32  50  68 124 158 180 220 286 304
#     4  11  22  35  57  83 110 147 190 230 277 329
#     4  11  22  35  57  83 110 147 190 230 277 329
#
# _framework density 15.776078
#
# number of rings (size 3 to 8) (size 9 to 14) (size 15 to 20)
#    0.522    0.696    6.957    3.130    0.000    1.391 
#    0.000    3.478    0.000    0.522    0.000    0.000 
#    0.000    0.000    0.000    0.000    0.000    0.000 
#
# Total GULP energy -128254.769439 kJ/mol
# GULP energy per Si atom -5576.294323 kJ/mol
# Density = 1.574017 g / cm^3
# Si number density = 15.776078 Si / 1000 Ang^3
#
#
#
# Elastic Constant Matrix: (Units=GPa)
#
#
# Indices 1 2 3 4 5 6 
#
# 1 126.9857 55.4898 41.7863 0.0000 0.0000 0.0000
# 2 55.4898 126.9857 41.7863 0.0000 0.0000 0.0000
# 3 41.7863 41.7863 121.2531 0.0000 0.0000 0.0000
# 4 0.0000 0.0000 0.0000 16.0939 0.0000 0.0000
# 5 0.0000 0.0000 0.0000 0.0000 16.0939 0.0000
# 6 0.0000 0.0000 0.0000 0.0000 0.0000 21.8916
#
#
#
# Elastic Compliance Matrix: (Units=1/GPa)
#
#
# Indices 1 2 3 4 5 6 
#
# 1 0.010247 -0.003740 -0.002243 0.000000 0.000000 0.000000
# 2 -0.003740 0.010247 -0.002243 0.000000 0.000000 0.000000
# 3 -0.002243 -0.002243 0.009793 0.000000 0.000000 0.000000
# 4 0.000000 0.000000 0.000000 0.062135 0.000000 0.000000
# 5 0.000000 0.000000 0.000000 0.000000 0.062135 0.000000
# 6 0.000000 0.000000 0.000000 0.000000 0.000000 0.045680
#
#
# Mechanical properties :
#
#
# Convention : Reuss Voigt Hill
#
# Bulk Modulus (GPa) = 72.26879 72.59438 72.43158
# Shear Modulus (GPa) = 22.59382 26.56002 24.57692
#
# Velocity S-wave (km/s) = 3.78849 4.10758 3.95126
# Velocity P-wave (km/s) = 8.06507 8.28321 8.17487
#
# Compressibility (1/GPa) = 0.01383723
#
# Stress axis : x y z
#
# Youngs Moduli (GPa) = 97.58923 97.58923 102.11527
#
# Poissons Ratio (x) = 0.36496 0.22900
# Poissons Ratio (y) = 0.36496 0.22900
# Poissons Ratio (z) = 0.21885 0.21885
#
# Static dielectric constant tensor:
#      x y z
#    x 1.546290 0.000000 0.000000 
#    y 0.000000 1.546290 0.000000 
#    z 0.000000 0.000000 1.537570 
# 
# From -- ./inp_files/291.got.cif
#   From: 2010.05.17/outbox.cif.g08.bks.cpg/sg81_cif.got.tgz:291.got - 2010.06.03 18:51:07.
