data_PCOD9542742
_publ_section_title
;
Structure prediction by ZEFSAII (Michael W. Deem and Ramdas Pophale) SiO2 
 PCOD9542742
Probable space group: I -4 
;
_chemical_formula_sum "Si O2"
_cell_formula_units_Z 52
_cell_length_a 16.492276
_cell_length_b 16.492276
_cell_length_c 9.255937
_cell_angle_alpha 90.000000
_cell_angle_beta 90.000000
_cell_angle_gamma 90.000000
_cell_volume 2517.570136
_symmetry_space_group_name_H-M "I -4 "
_symmetry_group_IT_number 82
_symmetry_cell_setting 'tetragonal'
loop_
_space_group_symop_operation_xyz
x,y,z
y,-x,-z
-x,-y,z
-y,x,-z
1/2+x,1/2+y,1/2+z
1/2+y,1/2-x,1/2-z
1/2-x,1/2-y,1/2+z
1/2-y,1/2+x,1/2-z
loop_
_atom_site_type_symbol
_atom_site_label
_atom_site_fract_x
_atom_site_fract_y
_atom_site_fract_z
Si Si1 0.625060 0.452559 0.527564
Si Si2 0.079815 0.348078 0.913303
Si Si3 0.000000 0.500000 0.550252
Si Si4 0.831592 0.419745 0.011960
Si Si5 0.731262 0.117733 0.821205
Si Si6 0.231255 0.009988 0.262080
Si Si7 0.776143 0.682254 0.706665
O O1 0.544079 0.398888 0.518221
O O2 0.693718 0.417353 0.418333
O O3 0.655645 0.461411 0.694380
O O4 0.055865 0.436553 0.864830
O O5 0.004164 0.294674 0.867969
O O6 0.156107 0.310977 0.830622
O O7 0.097541 0.346555 0.081157
O O8 0.050379 0.425783 0.474343
O O9 0.785369 0.417251 0.163910
O O10 0.776708 0.475198 0.902589
O O11 0.830027 0.330650 0.936487
O O12 0.745077 0.213889 0.810243
O O13 0.221724 0.106123 0.260599
#
# Coordination Sequence:
#
# PCOD9542742 Si02
#       7
#     8   8   4   8   8   8   8
#     4  10  21  42  69  90 119 167 217 271 327 389
#     4  10  23  37  64  90 128 171 208 263 328 390
#     4  12  22  42  62  96 134 160 220 262 328 402
#     4  11  25  39  66  97 131 170 214 274 331 389
#     4  11  24  43  59  97 130 169 220 265 328 396
#     4  10  20  39  61  94 117 161 214 255 323 387
#     4  11  20  41  65  88 126 171 213 264 313 401
#
# _framework density 20.654837000000001
#
# number of rings (size 3 to 8) (size 9 to 14) (size 15 to 20)
#    0.000    1.385    4.615    0.923    0.000    4.308 
#    2.769    0.000    0.000    1.846    0.000    0.000 
#    0.000    0.000    0.000    0.000    0.000    0.000 
#
# Total GULP energy -144743.677611 kJ/mol
# GULP energy per Si atom -5567.064523 kJ/mol
# Density = 2.060783 g / cm^3
# Si number density = 20.654837 Si / 1000 Ang^3
#
#
#
# Elastic Constant Matrix: (Units=GPa)
#
#
# Indices 1 2 3 4 5 6 
#
# 1 64.2164 18.1353 23.5698 0.0000 0.0000 0.0247
# 2 18.1353 64.2164 23.5698 0.0000 0.0000 -0.0247
# 3 23.5698 23.5698 117.7230 0.0000 0.0000 0.0000
# 4 0.0000 0.0000 0.0000 16.2304 0.0000 0.0000
# 5 0.0000 0.0000 0.0000 0.0000 16.2304 0.0000
# 6 0.0247 -0.0247 0.0000 0.0000 0.0000 31.7808
#
#
#
# Elastic Compliance Matrix: (Units=1/GPa)
#
#
# Indices 1 2 3 4 5 6 
#
# 1 0.017708 -0.003993 -0.002746 0.000000 0.000000 -0.000017
# 2 -0.003993 0.017708 -0.002746 0.000000 0.000000 0.000017
# 3 -0.002746 -0.002746 0.009594 0.000000 0.000000 0.000000
# 4 0.000000 0.000000 0.000000 0.061613 0.000000 0.000000
# 5 0.000000 0.000000 0.000000 0.000000 0.061613 0.000000
# 6 -0.000017 0.000017 0.000000 0.000000 0.000000 0.031466
#
#
# Mechanical properties :
#
#
# Convention : Reuss Voigt Hill
#
# Bulk Modulus (GPa) = 38.40226 41.85616 40.12921
# Shear Modulus (GPa) = 21.99243 24.90703 23.44973
#
# Velocity S-wave (km/s) = 3.26660 3.47633 3.37310
# Velocity P-wave (km/s) = 5.73240 6.03504 5.88566
#
# Compressibility (1/GPa) = 0.02604013
#
# Stress axis : x y z
#
# Youngs Moduli (GPa) = 56.47204 56.47204 104.23131
#
# Poissons Ratio (x) = 0.22550 0.28621
# Poissons Ratio (y) = 0.22550 0.28621
# Poissons Ratio (z) = 0.15507 0.15507
#
# Static dielectric constant tensor:
#      x y z
#    x 1.787740 0.000000 0.000000 
#    y 0.000000 1.787740 0.000000 
#    z 0.000000 0.000000 1.750910 
# 
# From -- ./inp_files/1090.got.cif
#   From: 2010.05.17/outbox.cif.g08.bks.cpg/sg82_1_cif.got.tgz:1090.got - 2010.06.03 18:52:26.
