data_PCOD9542308
_publ_section_title
;
Structure prediction by ZEFSAII (Michael W. Deem and Ramdas Pophale) SiO2 
 PCOD9542308
Probable space group: I 41
;
_chemical_formula_sum "Si O2"
_cell_formula_units_Z 28
_cell_length_a 7.171930
_cell_length_b 7.171930
_cell_length_c 19.344837
_cell_angle_alpha 90.000000
_cell_angle_beta 90.000000
_cell_angle_gamma 90.000000
_cell_volume 995.032254
_symmetry_space_group_name_H-M "I 41"
_symmetry_group_IT_number 80
_symmetry_cell_setting 'tetragonal'
loop_
_space_group_symop_operation_xyz
x,y,z
-y,1/2+x,1/4+z
-x,-y,z
y,1/2-x,1/4+z
1/2+x,1/2+y,1/2+z
1/2-y,x,3/4+z
1/2-x,1/2-y,1/2+z
1/2+y,-x,3/4+z
loop_
_atom_site_type_symbol
_atom_site_label
_atom_site_fract_x
_atom_site_fract_y
_atom_site_fract_z
Si Si1 0.000000 0.000000 0.883361
Si Si2 0.277716 0.285138 0.955411
Si Si3 0.723367 0.515119 0.572333
Si Si4 0.190186 0.878735 0.530053
O O1 0.893473 0.148080 0.836828
O O2 0.133940 0.135794 0.925180
O O3 0.500000 0.500000 0.043053
O O4 0.283291 0.203202 0.033050
O O5 0.678062 0.154994 0.031625
O O6 0.229293 0.503242 0.964711
O O7 0.500000 0.500000 0.568750
O O8 0.774893 0.547272 0.652982
#
# Coordination Sequence:
#
# PCOD9542308 Si02
#       4
#     4   8   8   8
#     4  12  26  54  84 128 178 246 310 392 480 582
#     4  12  27  55  86 132 190 255 314 400 484 587
#     4  12  27  53  92 135 192 254 329 399 497 593
#     4  12  30  52  85 137 181 243 322 400 484 580
#
# _framework density 28.139792
#
# number of rings (size 3 to 8) (size 9 to 14) (size 15 to 20)
#    0.000    0.000    7.143    0.000    4.000    4.571 
#    0.000    0.000    0.000    0.000    0.000    0.000 
#    0.000    0.000    0.000    0.000    0.000    0.000 
#
# Total GULP energy -78302.671131 kJ/mol
# GULP energy per Si atom -5593.047938 kJ/mol
# Density = 2.807574 g / cm^3
# Si number density = 28.139792 Si / 1000 Ang^3
#
#
#
# Elastic Constant Matrix: (Units=GPa)
#
#
# Indices 1 2 3 4 5 6 
#
# 1 189.3857 30.0384 37.9628 0.0000 0.0000 -1.1102
# 2 30.0384 189.3857 37.9628 0.0000 0.0000 1.1102
# 3 37.9628 37.9628 97.2908 0.0000 0.0000 0.0000
# 4 0.0000 0.0000 0.0000 27.1901 0.0000 0.0000
# 5 0.0000 0.0000 0.0000 0.0000 27.1901 0.0000
# 6 -1.1102 1.1102 0.0000 0.0000 0.0000 60.4548
#
#
#
# Elastic Compliance Matrix: (Units=1/GPa)
#
#
# Indices 1 2 3 4 5 6 
#
# 1 0.005773 -0.000504 -0.002056 0.000000 0.000000 0.000115
# 2 -0.000504 0.005773 -0.002056 0.000000 0.000000 -0.000115
# 3 -0.002056 -0.002056 0.011883 0.000000 0.000000 0.000000
# 4 0.000000 0.000000 0.000000 0.036778 0.000000 0.000000
# 5 0.000000 0.000000 0.000000 0.000000 0.036778 0.000000
# 6 0.000115 -0.000115 0.000000 0.000000 0.000000 0.016546
#
#
# Mechanical properties :
#
#
# Convention : Reuss Voigt Hill
#
# Bulk Modulus (GPa) = 70.43786 76.44337 73.44062
# Shear Modulus (GPa) = 39.21732 47.64022 43.42877
#
# Velocity S-wave (km/s) = 3.73723 4.11905 3.93278
# Velocity P-wave (km/s) = 6.61122 7.06022 6.83940
#
# Compressibility (1/GPa) = 0.01419691
#
# Stress axis : x y z
#
# Youngs Moduli (GPa) = 173.22063 173.22063 84.15486
#
# Poissons Ratio (x) = 0.08734 0.17301
# Poissons Ratio (y) = 0.08734 0.17301
# Poissons Ratio (z) = 0.35612 0.35612
#
# Static dielectric constant tensor:
#      x y z
#    x 2.224800 0.000000 0.000000 
#    y 0.000000 2.224800 0.000000 
#    z 0.000000 0.000000 2.229830 
# 
# From -- ./inp_files/1638.got.cif
#   From: 2010.05.17/outbox.cif.g08.bks.cpg/sg80_cif.got.tgz:1638.got - 2010.06.03 18:49:13.
