data_PCOD9542632
_publ_section_title
;
Structure prediction by ZEFSAII (Michael W. Deem and Ramdas Pophale) SiO2 
 PCOD9542632
Probable space group: I -4 
;
_chemical_formula_sum "Si O2"
_cell_formula_units_Z 56
_cell_length_a 12.101733
_cell_length_b 12.101733
_cell_length_c 19.536538
_cell_angle_alpha 90.000000
_cell_angle_beta 90.000000
_cell_angle_gamma 90.000000
_cell_volume 2861.163922
_symmetry_space_group_name_H-M "I -4 "
_symmetry_group_IT_number 82
_symmetry_cell_setting 'tetragonal'
loop_
_space_group_symop_operation_xyz
x,y,z
y,-x,-z
-x,-y,z
-y,x,-z
1/2+x,1/2+y,1/2+z
1/2+y,1/2-x,1/2-z
1/2-x,1/2-y,1/2+z
1/2-y,1/2+x,1/2-z
loop_
_atom_site_type_symbol
_atom_site_label
_atom_site_fract_x
_atom_site_fract_y
_atom_site_fract_z
Si Si1 0.515724 0.332473 0.467276
Si Si2 0.560317 0.117245 0.667377
Si Si3 0.366398 0.491760 0.691834
Si Si4 0.592504 0.906549 0.988528
Si Si5 0.583508 0.396779 0.820192
Si Si6 0.091446 0.238748 0.242095
Si Si7 0.342976 0.554036 0.969147
O O1 0.414395 0.383017 0.511701
O O2 0.488729 0.332173 0.386048
O O3 0.549201 0.208966 0.484865
O O4 0.607255 0.107594 0.592451
O O5 0.657351 0.144757 0.720579
O O6 0.469766 0.212601 0.675665
O O7 0.500000 0.000000 0.680846
O O8 0.500000 0.500000 0.687903
O O9 0.338648 0.573735 0.754919
O O10 0.340657 0.367893 0.718707
O O11 0.500000 0.000000 0.001163
O O12 0.562063 0.786132 0.016112
O O13 0.500000 0.500000 0.827938
O O14 0.502775 0.299598 0.796211
O O15 0.638021 0.391836 0.894298
O O16 0.426016 0.617399 0.021925
#
# Coordination Sequence:
#
# PCOD9542632 Si02
#       7
#     8   8   8   8   8   8   8
#     4  11  22  42  67  93 122 170 212 257 318 384
#     4  11  20  35  50  86 121 162 191 248 315 378
#     4   9  19  35  59  88 117 147 210 260 294 369
#     4  11  28  41  62  93 135 158 215 263 315 370
#     4   9  19  35  59  88 117 147 210 260 294 369
#     4  10  18  32  56  82 124 152 194 254 306 364
#     4  11  22  42  67  93 122 170 212 257 318 384
#
# _framework density 19.572455000000001
#
# number of rings (size 3 to 8) (size 9 to 14) (size 15 to 20)
#    0.000    2.000    4.286    1.714    6.000    1.143 
#    0.000    0.000    3.143    0.000    0.000    0.000 
#    0.000    0.000    0.000    0.000    0.000    0.000 
#
# Total GULP energy -156021.040301 kJ/mol
# GULP energy per Si atom -5572.180011 kJ/mol
# Density = 1.952791 g / cm^3
# Si number density = 19.572455 Si / 1000 Ang^3
#
#
#
# Elastic Constant Matrix: (Units=GPa)
#
#
# Indices 1 2 3 4 5 6 
#
# 1 69.6796 16.5571 1.5977 0.0000 0.0000 0.5088
# 2 16.5571 69.6796 1.5977 0.0000 0.0000 -0.5088
# 3 1.5977 1.5977 107.2913 0.0000 0.0000 0.0000
# 4 0.0000 0.0000 0.0000 12.1346 0.0000 0.0000
# 5 0.0000 0.0000 0.0000 0.0000 12.1346 0.0000
# 6 0.5088 -0.5088 0.0000 0.0000 0.0000 9.7481
#
#
#
# Elastic Compliance Matrix: (Units=1/GPa)
#
#
# Indices 1 2 3 4 5 6 
#
# 1 0.015223 -0.003620 -0.000173 0.000000 0.000000 -0.000984
# 2 -0.003620 0.015223 -0.000173 0.000000 0.000000 0.000984
# 3 -0.000173 -0.000173 0.009326 0.000000 0.000000 0.000000
# 4 0.000000 0.000000 0.000000 0.082409 0.000000 0.000000
# 5 0.000000 0.000000 0.000000 0.000000 0.082409 0.000000
# 6 -0.000984 0.000984 0.000000 0.000000 0.000000 0.102687
#
#
# Mechanical properties :
#
#
# Convention : Reuss Voigt Hill
#
# Bulk Modulus (GPa) = 31.40777 31.79505 31.60141
# Shear Modulus (GPa) = 15.34583 21.92998 18.63791
#
# Velocity S-wave (km/s) = 2.80313 3.35095 3.08921
# Velocity P-wave (km/s) = 5.15349 5.59033 5.37635
#
# Compressibility (1/GPa) = 0.03183925
#
# Stress axis : x y z
#
# Youngs Moduli (GPa) = 65.69084 65.69084 107.23206
#
# Poissons Ratio (x) = 0.23783 0.01853
# Poissons Ratio (y) = 0.23783 0.01853
# Poissons Ratio (z) = 0.01135 0.01135
#
# Static dielectric constant tensor:
#      x y z
#    x 1.715250 0.000000 0.000000 
#    y 0.000000 1.715250 0.000000 
#    z 0.000000 0.000000 1.772250 
# 
# From -- ./inp_files/3148.got.cif
#   From: 2010.05.17/outbox.cif.g08.bks.cpg/sg82_2_cif.got.tgz:3148.got - 2010.06.03 18:52:26.
