data_PCOD9542843
_publ_section_title
;
Structure prediction by ZEFSAII (Michael W. Deem and Ramdas Pophale) SiO2 
 PCOD9542843
Probable space group: I -4 
;
_chemical_formula_sum "Si O2"
_cell_formula_units_Z 64
_cell_length_a 11.198886
_cell_length_b 11.198886
_cell_length_c 25.864589
_cell_angle_alpha 90.000000
_cell_angle_beta 90.000000
_cell_angle_gamma 90.000000
_cell_volume 3243.808662
_symmetry_space_group_name_H-M "I -4 "
_symmetry_group_IT_number 82
_symmetry_cell_setting 'tetragonal'
loop_
_space_group_symop_operation_xyz
x,y,z
y,-x,-z
-x,-y,z
-y,x,-z
1/2+x,1/2+y,1/2+z
1/2+y,1/2-x,1/2-z
1/2-x,1/2-y,1/2+z
1/2-y,1/2+x,1/2-z
loop_
_atom_site_type_symbol
_atom_site_label
_atom_site_fract_x
_atom_site_fract_y
_atom_site_fract_z
Si Si1 0.956585 0.120838 0.345277
Si Si2 0.712615 0.971572 0.033132
Si Si3 0.214689 0.272180 0.607460
Si Si4 0.627502 0.697761 0.935384
Si Si5 0.132913 0.946831 0.841166
Si Si6 0.303081 0.095690 0.518171
Si Si7 0.324800 0.371064 0.428965
Si Si8 0.500494 0.198199 0.754771
O O1 0.818718 0.126737 0.363233
O O2 0.043338 0.130724 0.395109
O O3 0.977633 0.233032 0.308210
O O4 0.000000 0.000000 0.318123
O O5 0.814431 0.044793 0.064426
O O6 0.656954 0.874308 0.071543
O O7 0.628494 0.073999 0.009830
O O8 0.779311 0.905775 0.986031
O O9 0.308526 0.338121 0.645322
O O10 0.283795 0.184487 0.566897
O O11 0.538723 0.792729 0.962203
O O12 0.734254 0.770226 0.908685
O O13 0.693030 0.618612 0.978692
O O14 0.209077 0.980765 0.791210
O O15 0.177860 0.017692 0.891682
O O16 0.000000 0.000000 0.833609
O O17 0.612600 0.113986 0.742172
#
# Coordination Sequence:
#
# PCOD9542843 Si02
#       8
#     8   8   8   8   8   8   8   8
#     4  11  25  45  66  88 128 174 219 274 327 399
#     4  11  19  35  55  88 132 171 204 263 316 384
#     4  11  21  39  58  94 128 170 223 254 325 396
#     4  10  23  37  56  87 122 172 223 255 315 383
#     4  12  22  37  67  95 125 167 208 265 332 403
#     4  10  22  36  56  86 128 172 216 262 309 379
#     4  11  21  34  55  90 130 165 205 254 324 380
#     4  11  24  45  70  98 129 156 209 285 346 395
#
# _framework density 19.729893000000001
#
# number of rings (size 3 to 8) (size 9 to 14) (size 15 to 20)
#    0.000    1.125    6.250    1.125    3.500    0.500 
#    0.000    0.000    0.000    0.000    0.000    0.000 
#    0.000    0.000    0.000    0.000    0.000    0.000 
#
# Total GULP energy -178767.858268 kJ/mol
# GULP energy per Si atom -5586.495571 kJ/mol
# Density = 1.968499 g / cm^3
# Si number density = 19.729893 Si / 1000 Ang^3
#
#
#
# Elastic Constant Matrix: (Units=GPa)
#
#
# Indices 1 2 3 4 5 6 
#
# 1 74.7986 19.7578 17.0157 0.0000 0.0000 -1.2898
# 2 19.7578 74.7986 17.0157 0.0000 0.0000 1.2898
# 3 17.0157 17.0157 55.8921 0.0000 0.0000 0.0000
# 4 0.0000 0.0000 0.0000 26.2185 0.0000 0.0000
# 5 0.0000 0.0000 0.0000 0.0000 26.2185 0.0000
# 6 -1.2898 1.2898 0.0000 0.0000 0.0000 21.9595
#
#
#
# Elastic Compliance Matrix: (Units=1/GPa)
#
#
# Indices 1 2 3 4 5 6 
#
# 1 0.015048 -0.003171 -0.003616 0.000000 0.000000 0.001070
# 2 -0.003171 0.015048 -0.003616 0.000000 0.000000 -0.001070
# 3 -0.003616 -0.003616 0.020093 0.000000 0.000000 0.000000
# 4 0.000000 0.000000 0.000000 0.038141 0.000000 0.000000
# 5 0.000000 0.000000 0.000000 0.000000 0.038141 0.000000
# 6 0.001070 -0.001070 0.000000 0.000000 0.000000 0.045664
#
#
# Mechanical properties :
#
#
# Convention : Reuss Voigt Hill
#
# Bulk Modulus (GPa) = 34.03215 34.78532 34.40874
# Shear Modulus (GPa) = 24.66282 24.99263 24.82772
#
# Velocity S-wave (km/s) = 3.53940 3.56299 3.55122
# Velocity P-wave (km/s) = 5.83006 5.88180 5.85599
#
# Compressibility (1/GPa) = 0.02938398
#
# Stress axis : x y z
#
# Youngs Moduli (GPa) = 66.45499 66.45499 49.76808
#
# Poissons Ratio (x) = 0.21071 0.17995
# Poissons Ratio (y) = 0.21071 0.17995
# Poissons Ratio (z) = 0.24029 0.24029
#
# Static dielectric constant tensor:
#      x y z
#    x 1.713530 0.000000 0.000000 
#    y 0.000000 1.713530 0.000000 
#    z 0.000000 0.000000 1.676080 
# 
# From -- ./inp_files/3563.got.cif
#   From: 2010.05.17/outbox.cif.g08.bks.cpg/sg82_2_cif.got.tgz:3563.got - 2010.06.03 18:52:26.
