data_PCOD9542262
_publ_section_title
;
Structure prediction by ZEFSAII (Michael W. Deem and Ramdas Pophale) SiO2 
 PCOD9542262
Probable space group: I 41
;
_chemical_formula_sum "Si O2"
_cell_formula_units_Z 48
_cell_length_a 8.425901
_cell_length_b 8.425901
_cell_length_c 28.096676
_cell_angle_alpha 90.000000
_cell_angle_beta 90.000000
_cell_angle_gamma 90.000000
_cell_volume 1994.746205
_symmetry_space_group_name_H-M "I 41"
_symmetry_group_IT_number 80
_symmetry_cell_setting 'tetragonal'
loop_
_space_group_symop_operation_xyz
x,y,z
-y,1/2+x,1/4+z
-x,-y,z
y,1/2-x,1/4+z
1/2+x,1/2+y,1/2+z
1/2-y,x,3/4+z
1/2-x,1/2-y,1/2+z
1/2+y,-x,3/4+z
loop_
_atom_site_type_symbol
_atom_site_label
_atom_site_fract_x
_atom_site_fract_y
_atom_site_fract_z
Si Si1 0.134970 0.884041 0.645180
Si Si2 0.134970 0.384041 0.204597
Si Si3 0.645921 0.104329 0.211485
Si Si4 0.290122 0.832821 0.551260
Si Si5 0.645921 0.604329 0.638292
Si Si6 0.290122 0.332821 0.298517
O O1 0.074919 0.753035 0.682016
O O2 0.218044 0.792620 0.602209
O O3 0.250000 0.000000 0.674889
O O4 0.000000 0.000000 0.626154
O O5 0.074919 0.253035 0.167762
O O6 0.218044 0.292620 0.247568
O O7 0.000000 0.500000 0.223624
O O8 0.729123 0.185797 0.257082
O O9 0.500000 0.000000 0.229083
O O10 0.750000 1.000000 0.174889
O O11 0.474108 0.786994 0.548821
O O12 0.286994 0.025892 0.550957
O O13 0.500000 0.500000 0.620694
O O14 0.729123 0.685797 0.592695
#
# Coordination Sequence:
#
# PCOD9542262 Si02
#       6
#     8   8   8   8   8   8
#     4  12  24  44  73 103 141 191 246 299 371 455
#     4  12  24  44  73 103 141 191 246 299 371 455
#     4  12  26  46  68 107 152 187 240 316 380 440
#     4  11  23  43  76 105 137 191 255 302 362 455
#     4  12  26  46  68 107 152 187 240 316 380 440
#     4  11  23  43  76 105 137 191 255 302 362 455
#
# _framework density 24.063210999999999
#
# number of rings (size 3 to 8) (size 9 to 14) (size 15 to 20)
#    0.000    0.333    3.333    7.000    0.000    0.000 
#    0.000    0.000    0.000    0.000    0.000    0.000 
#    0.000    0.000    0.000    0.000    0.000    0.000 
#
# Total GULP energy -134420.108290 kJ/mol
# GULP energy per Si atom -5600.837845 kJ/mol
# Density = 2.400844 g / cm^3
# Si number density = 24.063211 Si / 1000 Ang^3
#
#
#
# Elastic Constant Matrix: (Units=GPa)
#
#
# Indices 1 2 3 4 5 6 
#
# 1 77.0433 -0.6384 11.4460 0.0000 0.0000 -8.5356
# 2 -0.6384 77.0433 11.4460 0.0000 0.0000 8.5356
# 3 11.4460 11.4460 135.6188 0.0000 0.0000 0.0000
# 4 0.0000 0.0000 0.0000 43.2121 0.0000 0.0000
# 5 0.0000 0.0000 0.0000 0.0000 43.2121 0.0000
# 6 -8.5356 8.5356 0.0000 0.0000 0.0000 40.9875
#
#
#
# Elastic Compliance Matrix: (Units=1/GPa)
#
#
# Indices 1 2 3 4 5 6 
#
# 1 0.013459 -0.000031 -0.001133 0.000000 0.000000 0.002809
# 2 -0.000031 0.013459 -0.001133 0.000000 0.000000 -0.002809
# 3 -0.001133 -0.001133 0.007565 0.000000 0.000000 0.000000
# 4 0.000000 0.000000 0.000000 0.023142 0.000000 0.000000
# 5 0.000000 0.000000 0.000000 0.000000 0.023142 0.000000
# 6 0.002809 -0.002809 0.000000 0.000000 0.000000 0.025568
#
#
# Mechanical properties :
#
#
# Convention : Reuss Voigt Hill
#
# Bulk Modulus (GPa) = 33.45909 37.13471 35.29690
# Shear Modulus (GPa) = 41.35910 43.31245 42.33577
#
# Velocity S-wave (km/s) = 4.15030 4.24718 4.19902
# Velocity P-wave (km/s) = 6.07466 6.28626 6.18136
#
# Compressibility (1/GPa) = 0.02988724
#
# Stress axis : x y z
#
# Youngs Moduli (GPa) = 74.29931 74.29932 132.18939
#
# Poissons Ratio (x) = 0.00233 0.14981
# Poissons Ratio (y) = 0.00233 0.14981
# Poissons Ratio (z) = 0.08420 0.08420
#
# Static dielectric constant tensor:
#      x y z
#    x 1.931440 0.000000 0.000000 
#    y 0.000000 1.931440 0.000000 
#    z 0.000000 0.000000 1.904050 
# 
# From -- ./inp_files/2644.got.cif
#   From: 2010.05.17/outbox.cif.g08.bks.cpg/sg80_cif.got.tgz:2644.got - 2010.06.03 18:49:13.
