data_PCOD9542184
_publ_section_title
;
Structure prediction by ZEFSAII (Michael W. Deem and Ramdas Pophale) SiO2 
 PCOD9542184
Probable space group: I 41
;
_chemical_formula_sum "Si O2"
_cell_formula_units_Z 56
_cell_length_a 15.201298
_cell_length_b 15.201298
_cell_length_c 11.242908
_cell_angle_alpha 90.000000
_cell_angle_beta 90.000000
_cell_angle_gamma 90.000000
_cell_volume 2598.005119
_symmetry_space_group_name_H-M "I 41"
_symmetry_group_IT_number 80
_symmetry_cell_setting 'tetragonal'
loop_
_space_group_symop_operation_xyz
x,y,z
-y,1/2+x,1/4+z
-x,-y,z
y,1/2-x,1/4+z
1/2+x,1/2+y,1/2+z
1/2-y,x,3/4+z
1/2-x,1/2-y,1/2+z
1/2+y,-x,3/4+z
loop_
_atom_site_type_symbol
_atom_site_label
_atom_site_fract_x
_atom_site_fract_y
_atom_site_fract_z
Si Si1 0.611503 0.876168 0.402630
Si Si2 0.868054 0.834194 0.910900
Si Si3 0.055565 0.614907 0.752726
Si Si4 0.272041 0.790383 0.348337
Si Si5 0.589681 0.672092 0.671087
Si Si6 0.185858 0.562112 0.594583
Si Si7 0.536112 0.782437 0.045049
O O1 0.621016 0.901929 0.540674
O O2 0.619470 0.770290 0.396859
O O3 0.519518 0.904076 0.346573
O O4 0.692951 0.913923 0.328405
O O5 0.764783 0.858112 0.922220
O O6 0.912204 0.860210 0.035320
O O7 0.145375 0.646556 0.817647
O O8 0.093825 0.542677 0.662239
O O9 0.014025 0.687527 0.663762
O O10 0.280347 0.778244 0.490603
O O11 0.167470 0.811996 0.331196
O O12 0.493738 0.688185 0.725404
O O13 0.643848 0.604741 0.752900
O O14 0.261548 0.527280 0.683312
#
# Coordination Sequence:
#
# PCOD9542184 Si02
#       7
#     8   8   8   8   8   8   8
#     4  11  22  40  71 106 156 186 229 297 383 453
#     4  10  22  40  66 117 151 186 226 288 386 472
#     4  11  24  43  71 101 139 195 250 298 353 441
#     4  10  23  48  74  99 130 186 261 304 356 423
#     4  11  22  40  71 106 156 186 229 297 383 453
#     4  11  24  43  71 101 139 195 250 298 353 441
#     4  12  23  42  68 107 144 188 235 306 354 467
#
# _framework density 21.555001000000001
#
# number of rings (size 3 to 8) (size 9 to 14) (size 15 to 20)
#    0.000    1.143    2.857    6.000    0.000    4.571 
#    0.000    0.000    0.000    1.714    0.000    0.000 
#    0.000    0.000    0.000    0.000    0.000    0.000 
#
# Total GULP energy -156207.962378 kJ/mol
# GULP energy per Si atom -5578.855799 kJ/mol
# Density = 2.150594 g / cm^3
# Si number density = 21.555001 Si / 1000 Ang^3
#
#
#
# Elastic Constant Matrix: (Units=GPa)
#
#
# Indices 1 2 3 4 5 6 
#
# 1 84.3061 10.9880 23.7320 0.0000 0.0000 4.7630
# 2 10.9880 84.3061 23.7320 0.0000 0.0000 -4.7630
# 3 23.7320 23.7320 120.6900 0.0000 0.0000 0.0000
# 4 0.0000 0.0000 0.0000 36.7134 0.0000 0.0000
# 5 0.0000 0.0000 0.0000 0.0000 36.7134 0.0000
# 6 4.7630 -4.7630 0.0000 0.0000 0.0000 10.4830
#
#
#
# Elastic Compliance Matrix: (Units=1/GPa)
#
#
# Indices 1 2 3 4 5 6 
#
# 1 0.013064 -0.001431 -0.002288 0.000000 0.000000 -0.006586
# 2 -0.001431 0.013064 -0.002288 0.000000 0.000000 0.006586
# 3 -0.002288 -0.002288 0.009185 0.000000 0.000000 0.000000
# 4 0.000000 0.000000 0.000000 0.027238 0.000000 0.000000
# 5 0.000000 0.000000 0.000000 0.000000 0.027238 0.000000
# 6 -0.006586 0.006586 0.000000 0.000000 0.000000 0.101377
#
#
# Mechanical properties :
#
#
# Convention : Reuss Voigt Hill
#
# Bulk Modulus (GPa) = 42.91541 45.13404 44.02473
# Shear Modulus (GPa) = 23.70283 32.17199 27.93741
#
# Velocity S-wave (km/s) = 3.31969 3.86755 3.60404
# Velocity P-wave (km/s) = 5.88614 6.39753 6.14716
#
# Compressibility (1/GPa) = 0.02330165
#
# Stress axis : x y z
#
# Youngs Moduli (GPa) = 76.54610 76.54610 108.86950
#
# Poissons Ratio (x) = 0.10952 0.24904
# Poissons Ratio (y) = 0.10952 0.24904
# Poissons Ratio (z) = 0.17510 0.17510
#
# Static dielectric constant tensor:
#      x y z
#    x 1.805220 0.000000 0.000000 
#    y 0.000000 1.805220 0.000000 
#    z 0.000000 0.000000 1.836790 
# 
# From -- ./inp_files/1047.got.cif
#   From: 2010.05.17/outbox.cif.g08.bks.cpg/sg80_cif.got.tgz:1047.got - 2010.06.03 18:49:13.
