data_PCOD9542657
_publ_section_title
;
Structure prediction by ZEFSAII (Michael W. Deem and Ramdas Pophale) SiO2 
 PCOD9542657
Probable space group: I -4 
;
_chemical_formula_sum "Si O2"
_cell_formula_units_Z 64
_cell_length_a 11.628413
_cell_length_b 11.628413
_cell_length_c 26.607796
_cell_angle_alpha 90.000000
_cell_angle_beta 90.000000
_cell_angle_gamma 90.000000
_cell_volume 3597.905880
_symmetry_space_group_name_H-M "I -4 "
_symmetry_group_IT_number 82
_symmetry_cell_setting 'tetragonal'
loop_
_space_group_symop_operation_xyz
x,y,z
y,-x,-z
-x,-y,z
-y,x,-z
1/2+x,1/2+y,1/2+z
1/2+y,1/2-x,1/2-z
1/2-x,1/2-y,1/2+z
1/2-y,1/2+x,1/2-z
loop_
_atom_site_type_symbol
_atom_site_label
_atom_site_fract_x
_atom_site_fract_y
_atom_site_fract_z
Si Si1 0.852888 0.762890 0.962990
Si Si2 0.416739 0.660502 0.344214
Si Si3 0.695509 0.792396 0.236365
Si Si4 0.404676 0.674599 0.638116
Si Si5 0.624996 0.233159 0.446845
Si Si6 0.135329 0.470806 0.817935
Si Si7 0.361660 0.015489 0.436046
Si Si8 0.412180 0.836104 0.732900
O O1 0.808909 0.843749 0.916533
O O2 0.812812 0.630710 0.960085
O O3 0.990145 0.751300 0.958167
O O4 0.821185 0.813136 0.016700
O O5 0.366431 0.707539 0.292571
O O6 0.555382 0.654411 0.342170
O O7 0.365858 0.538017 0.361930
O O8 0.373496 0.746945 0.387272
O O9 0.576961 0.799427 0.206737
O O10 0.671841 0.855493 0.289269
O O11 0.741058 0.663742 0.239242
O O12 0.405011 0.785420 0.675560
O O13 0.678298 0.107457 0.456079
O O14 0.156575 0.466471 0.876854
O O15 0.000000 0.500000 0.810267
O O16 0.500000 0.000000 0.442449
O O17 0.540602 0.851927 0.755166
#
# Coordination Sequence:
#
# PCOD9542657 Si02
#       8
#     8   8   8   8   8   8   8   8
#     4  10  20  34  60  84 112 146 182 230 284 338
#     4  10  20  33  57  86 113 141 181 239 292 334
#     4  12  19  34  54  85 113 148 185 230 281 342
#     4  10  20  37  56  82 111 147 188 235 286 337
#     4  10  19  35  56  86 116 139 181 232 286 332
#     4  11  20  32  57  91 119 142 181 231 295 346
#     4   9  19  33  52  81 115 144 175 223 279 337
#     4  11  24  40  55  74 114 163 200 233 277 335
#
# _framework density 17.788125999999998
#
# number of rings (size 3 to 8) (size 9 to 14) (size 15 to 20)
#    0.000    1.625    3.750    2.250    1.750    1.250 
#    0.000    1.250    5.500    0.375    0.000    0.000 
#    0.000    0.000    0.000    0.000    0.000    0.000 
#
# Total GULP energy -178234.938764 kJ/mol
# GULP energy per Si atom -5569.841836 kJ/mol
# Density = 1.774764 g / cm^3
# Si number density = 17.788126 Si / 1000 Ang^3
#
#
#
# Elastic Constant Matrix: (Units=GPa)
#
#
# Indices 1 2 3 4 5 6 
#
# 1 69.4917 26.9817 18.9812 0.0000 0.0000 2.9896
# 2 26.9817 69.4917 18.9812 0.0000 0.0000 -2.9896
# 3 18.9812 18.9812 49.0838 0.0000 0.0000 0.0000
# 4 0.0000 0.0000 0.0000 7.7477 0.0000 0.0000
# 5 0.0000 0.0000 0.0000 0.0000 7.7477 0.0000
# 6 2.9896 -2.9896 0.0000 0.0000 0.0000 24.3364
#
#
#
# Elastic Compliance Matrix: (Units=1/GPa)
#
#
# Indices 1 2 3 4 5 6 
#
# 1 0.018082 -0.005856 -0.004728 0.000000 0.000000 -0.002941
# 2 -0.005856 0.018082 -0.004728 0.000000 0.000000 0.002941
# 3 -0.004728 -0.004728 0.024030 0.000000 0.000000 0.000000
# 4 0.000000 0.000000 0.000000 0.129071 0.000000 0.000000
# 5 0.000000 0.000000 0.000000 0.000000 0.129071 0.000000
# 6 -0.002941 0.002941 0.000000 0.000000 0.000000 0.041813
#
#
# Mechanical properties :
#
#
# Convention : Reuss Voigt Hill
#
# Bulk Modulus (GPa) = 33.81769 35.32837 34.57303
# Shear Modulus (GPa) = 12.48037 16.17456 14.32747
#
# Velocity S-wave (km/s) = 2.65167 3.01871 2.84113
# Velocity P-wave (km/s) = 5.33177 5.66162 5.49917
#
# Compressibility (1/GPa) = 0.02957032
#
# Stress axis : x y z
#
# Youngs Moduli (GPa) = 55.30448 55.30448 41.61474
#
# Poissons Ratio (x) = 0.32385 0.19675
# Poissons Ratio (y) = 0.32385 0.19675
# Poissons Ratio (z) = 0.26147 0.26147
#
# Static dielectric constant tensor:
#      x y z
#    x 1.630530 0.000000 0.000000 
#    y 0.000000 1.630530 0.000000 
#    z 0.000000 0.000000 1.603710 
# 
# From -- ./inp_files/3812.got.cif
#   From: 2010.05.17/outbox.cif.g08.bks.cpg/sg82_2_cif.got.tgz:3812.got - 2010.06.03 18:52:26.
