data_PCOD9542368
_publ_section_title
;
Structure prediction by ZEFSAII (Michael W. Deem and Ramdas Pophale) SiO2 
 PCOD9542368
Probable space group: P -4
;
_chemical_formula_sum "Si O2"
_cell_formula_units_Z 22
_cell_length_a 9.436534
_cell_length_b 9.436534
_cell_length_c 12.992312
_cell_angle_alpha 90.000000
_cell_angle_beta 90.000000
_cell_angle_gamma 90.000000
_cell_volume 1156.941659
_symmetry_space_group_name_H-M "P -4"
_symmetry_group_IT_number 81
_symmetry_cell_setting 'tetragonal'
loop_
_space_group_symop_operation_xyz
x,y,z
y,-x,-z
-x,-y,z
-y,x,-z
loop_
_atom_site_type_symbol
_atom_site_label
_atom_site_fract_x
_atom_site_fract_y
_atom_site_fract_z
Si Si1 0.145077 0.256485 0.137510
Si Si2 0.009009 0.335112 0.922380
Si Si3 0.997345 0.803394 0.556046
Si Si4 0.000000 0.500000 0.474753
Si Si5 0.850198 0.178679 0.237599
Si Si6 0.500651 0.838791 0.724694
O O1 0.254471 0.139694 0.095705
O O2 0.224559 0.372597 0.209538
O O3 0.015272 0.187708 0.203246
O O4 0.066942 0.322903 0.038460
O O5 0.000000 0.500000 0.893586
O O6 0.115680 0.245653 0.851902
O O7 0.919514 0.833831 0.662465
O O8 0.138545 0.893332 0.534549
O O9 0.024347 0.638973 0.540497
O O10 0.131902 0.474550 0.396120
O O11 0.793896 0.337553 0.261674
O O12 0.500000 0.000000 0.767795
#
# Coordination Sequence:
#
# PCOD9542368 Si02
#       6
#     4   4   4   2   4   4
#     4  11  22  41  68  87 126 163 209 259 316 376
#     4  12  26  39  60  99 124 162 210 264 310 366
#     4  11  23  37  61  95 123 159 212 264 315 372
#     4  10  20  38  60  92 122 162 202 258 318 380
#     4  11  22  39  62  95 125 160 210 266 311 373
#     4   8  18  38  63  87 118 169 200 246 320 379
#
# _framework density 19.015650999999998
#
# number of rings (size 3 to 8) (size 9 to 14) (size 15 to 20)
#    0.545    0.909    3.636    2.182    8.909    0.000 
#    0.000    0.909    0.000    0.545    0.000    0.000 
#    0.000    0.000    0.000    0.000    0.000    0.000 
#
# Total GULP energy -122633.010001 kJ/mol
# GULP energy per Si atom -5574.227727 kJ/mol
# Density = 1.897237 g / cm^3
# Si number density = 19.015651 Si / 1000 Ang^3
#
#
#
# Elastic Constant Matrix: (Units=GPa)
#
#
# Indices 1 2 3 4 5 6 
#
# 1 84.2926 15.5704 16.3091 0.0000 0.0000 -5.3435
# 2 15.5704 84.2926 16.3091 0.0000 0.0000 5.3435
# 3 16.3091 16.3091 98.9591 0.0000 0.0000 0.0000
# 4 0.0000 0.0000 0.0000 21.1577 0.0000 0.0000
# 5 0.0000 0.0000 0.0000 0.0000 21.1577 0.0000
# 6 -5.3435 5.3435 0.0000 0.0000 0.0000 3.2094
#
#
#
# Elastic Compliance Matrix: (Units=1/GPa)
#
#
# Indices 1 2 3 4 5 6 
#
# 1 0.015109 -0.004526 -0.001744 0.000000 0.000000 0.032691
# 2 -0.004526 0.015109 -0.001744 0.000000 0.000000 -0.032691
# 3 -0.001744 -0.001744 0.010680 0.000000 0.000000 0.000000
# 4 0.000000 0.000000 0.000000 0.047264 0.000000 0.000000
# 5 0.000000 0.000000 0.000000 0.000000 0.047264 0.000000
# 6 0.032691 -0.032691 0.000000 0.000000 0.000000 0.420439
#
#
# Mechanical properties :
#
#
# Convention : Reuss Voigt Hill
#
# Bulk Modulus (GPa) = 40.20895 40.43573 40.32234
# Shear Modulus (GPa) = 8.61795 23.72866 16.17331
#
# Velocity S-wave (km/s) = 2.13117 3.53632 2.91954
# Velocity P-wave (km/s) = 5.21986 6.16317 5.71103
#
# Compressibility (1/GPa) = 0.02487009
#
# Stress axis : x y z
#
# Youngs Moduli (GPa) = 66.18442 66.18442 93.63201
#
# Poissons Ratio (x) = 0.29954 0.16331
# Poissons Ratio (y) = 0.29954 0.16331
# Poissons Ratio (z) = 0.11544 0.11544
#
# Static dielectric constant tensor:
#      x y z
#    x 1.694540 0.000000 0.000000 
#    y 0.000000 1.694540 0.000000 
#    z 0.000000 0.000000 1.689790 
# 
# From -- ./inp_files/1614.got.cif
#   From: 2010.05.17/outbox.cif.g08.bks.cpg/sg81_cif.got.tgz:1614.got - 2010.06.03 18:51:07.
