data_PCOD9542631
_publ_section_title
;
Structure prediction by ZEFSAII (Michael W. Deem and Ramdas Pophale) SiO2 
 PCOD9542631
Probable space group: I -4 
;
_chemical_formula_sum "Si O2"
_cell_formula_units_Z 64
_cell_length_a 18.240057
_cell_length_b 18.240057
_cell_length_c 10.071901
_cell_angle_alpha 90.000000
_cell_angle_beta 90.000000
_cell_angle_gamma 90.000000
_cell_volume 3350.918233
_symmetry_space_group_name_H-M "I -4 "
_symmetry_group_IT_number 82
_symmetry_cell_setting 'tetragonal'
loop_
_space_group_symop_operation_xyz
x,y,z
y,-x,-z
-x,-y,z
-y,x,-z
1/2+x,1/2+y,1/2+z
1/2+y,1/2-x,1/2-z
1/2-x,1/2-y,1/2+z
1/2-y,1/2+x,1/2-z
loop_
_atom_site_type_symbol
_atom_site_label
_atom_site_fract_x
_atom_site_fract_y
_atom_site_fract_z
Si Si1 0.739322 0.838476 0.702134
Si Si2 0.869176 0.747525 0.628515
Si Si3 0.297003 0.127311 0.987004
Si Si4 0.360601 0.456445 0.211432
Si Si5 0.780801 0.159005 0.914380
Si Si6 0.122044 0.151465 0.371200
Si Si7 0.153576 0.993951 0.291389
Si Si8 0.307639 0.496964 0.501360
O O1 0.802476 0.775458 0.721856
O O2 0.691948 0.856644 0.832023
O O3 0.789089 0.909029 0.673040
O O4 0.686545 0.802888 0.593224
O O5 0.857058 0.664504 0.581359
O O6 0.859783 0.797143 0.495172
O O7 0.946455 0.772709 0.687336
O O8 0.222666 0.171703 0.021055
O O9 0.270545 0.044563 0.006268
O O10 0.358156 0.534550 0.141747
O O11 0.435024 0.411387 0.183410
O O12 0.350841 0.469630 0.370389
O O13 0.808767 0.148785 0.762885
O O14 0.794221 0.082993 0.986566
O O15 0.151765 0.068427 0.374677
O O16 0.149643 0.017804 0.137366
#
# Coordination Sequence:
#
# PCOD9542631 Si02
#       8
#     8   8   8   8   8   8   8   8
#     4   9  18  34  52  76 102 142 182 226 269 314
#     4  10  22  33  53  74 111 147 182 222 270 327
#     4  10  18  36  55  76 110 139 182 235 272 313
#     4   9  21  34  51  75 112 149 179 221 267 321
#     4  10  18  32  54  78 105 138 180 231 268 319
#     4  11  21  35  49  77 113 147 182 212 269 328
#     4  11  22  35  50  78 112 152 185 215 264 332
#     4  10  19  33  56  79 105 135 189 232 268 314
#
# _framework density 19.099242
#
# number of rings (size 3 to 8) (size 9 to 14) (size 15 to 20)
#    0.000    2.000    2.500    2.625    5.250    0.000 
#    0.000    0.000    0.000    0.000    0.000    0.875 
#    0.000    0.000    0.000    0.000    0.000    0.000 
#
# Total GULP energy -178563.536571 kJ/mol
# GULP energy per Si atom -5580.110518 kJ/mol
# Density = 1.905577 g / cm^3
# Si number density = 19.099242 Si / 1000 Ang^3
#
#
#
# Elastic Constant Matrix: (Units=GPa)
#
#
# Indices 1 2 3 4 5 6 
#
# 1 37.7824 26.6611 -1.5641 0.0000 0.0000 -3.0317
# 2 26.6611 37.7824 -1.5641 0.0000 0.0000 3.0317
# 3 -1.5641 -1.5641 51.2954 0.0000 0.0000 0.0000
# 4 0.0000 0.0000 0.0000 21.9094 0.0000 0.0000
# 5 0.0000 0.0000 0.0000 0.0000 21.9094 0.0000
# 6 -3.0317 3.0317 0.0000 0.0000 0.0000 23.4800
#
#
#
# Elastic Compliance Matrix: (Units=1/GPa)
#
#
# Indices 1 2 3 4 5 6 
#
# 1 0.056134 -0.040593 0.000474 0.000000 0.000000 0.012489
# 2 -0.040593 0.056134 0.000474 0.000000 0.000000 -0.012489
# 3 0.000474 0.000474 0.019524 0.000000 0.000000 0.000000
# 4 0.000000 0.000000 0.000000 0.045642 0.000000 0.000000
# 5 0.000000 0.000000 0.000000 0.000000 0.045642 0.000000
# 6 0.012489 -0.012489 0.000000 0.000000 0.000000 0.045815
#
#
# Mechanical properties :
#
#
# Convention : Reuss Voigt Hill
#
# Bulk Modulus (GPa) = 19.04752 19.32509 19.18630
# Shear Modulus (GPa) = 13.67308 20.34825 17.01067
#
# Velocity S-wave (km/s) = 2.67853 3.26758 2.98761
# Velocity P-wave (km/s) = 4.42273 4.93724 4.68705
#
# Compressibility (1/GPa) = 0.05250027
#
# Stress axis : x y z
#
# Youngs Moduli (GPa) = 17.81460 17.81460 51.21943
#
# Poissons Ratio (x) = 0.72315 -0.02427
# Poissons Ratio (y) = 0.72315 -0.02427
# Poissons Ratio (z) = -0.00844 -0.00844
#
# Static dielectric constant tensor:
#      x y z
#    x 1.674180 0.000000 0.000000 
#    y 0.000000 1.674180 0.000000 
#    z 0.000000 0.000000 1.732010 
# 
# From -- ./inp_files/1905.got.cif
#   From: 2010.05.17/outbox.cif.g08.bks.cpg/sg82_1_cif.got.tgz:1905.got - 2010.06.03 18:52:26.
