data_PCOD9542350
_publ_section_title
;
Structure prediction by ZEFSAII (Michael W. Deem and Ramdas Pophale) SiO2 
 PCOD9542350
Probable space group: P -4
;
_chemical_formula_sum "Si O2"
_cell_formula_units_Z 27
_cell_length_a 8.412383
_cell_length_b 8.412383
_cell_length_c 18.566814
_cell_angle_alpha 90.000000
_cell_angle_beta 90.000000
_cell_angle_gamma 90.000000
_cell_volume 1313.939779
_symmetry_space_group_name_H-M "P -4"
_symmetry_group_IT_number 81
_symmetry_cell_setting 'tetragonal'
loop_
_space_group_symop_operation_xyz
x,y,z
y,-x,-z
-x,-y,z
-y,x,-z
loop_
_atom_site_type_symbol
_atom_site_label
_atom_site_fract_x
_atom_site_fract_y
_atom_site_fract_z
Si Si1 0.401774 0.690975 0.666846
Si Si2 0.387578 0.153010 0.779352
Si Si3 0.021670 0.186524 0.342066
Si Si4 0.827724 0.515310 0.599107
Si Si5 0.215770 0.758158 0.070041
Si Si6 0.500000 0.000000 0.014649
Si Si7 0.000000 0.000000 0.000000
Si Si8 0.343716 0.187153 0.550811
O O1 0.501457 0.721302 0.738357
O O2 0.322308 0.523709 0.649195
O O3 0.507310 0.754386 0.599666
O O4 0.246106 0.802580 0.674205
O O5 0.261511 0.089763 0.720242
O O6 0.303102 0.223757 0.848683
O O7 0.500000 0.000000 0.797597
O O8 0.972339 0.275607 0.415354
O O9 0.000000 0.000000 0.347024
O O10 0.794334 0.686173 0.565533
O O11 0.823170 0.396032 0.531122
O O12 0.000000 0.500000 0.633916
O O13 0.141123 0.603938 0.025855
O O14 0.069154 0.872208 0.054043
O O15 0.367040 0.877761 0.051792
#
# Coordination Sequence:
#
# PCOD9542350 Si02
#       8
#     4   4   4   4   4   2   1   4
#     4  10  21  39  60  89 115 163 212 258 320 402
#     4   9  19  37  68  91 129 176 220 248 328 398
#     4  10  21  39  61  90 121 157 209 277 309 380
#     4  12  23  37  60  86 112 156 209 274 336 401
#     4  10  19  40  66 106 134 184 210 281 319 402
#     4  10  22  38  74 104 148 168 236 264 340 388
#     4   8  20  32  64 104 140 164 228 262 320 392
#     4  11  22  38  59  82 117 154 202 261 339 401
#
# _framework density 20.548886
#
# number of rings (size 3 to 8) (size 9 to 14) (size 15 to 20)
#    0.000    1.778    2.222    3.556    1.037    0.296 
#    0.000    0.000   29.333    0.000    0.000    0.000 
#    0.000    0.000    0.000    0.000    0.000    0.000 
#
# Total GULP energy -150350.289190 kJ/mol
# GULP energy per Si atom -5568.529229 kJ/mol
# Density = 2.050212 g / cm^3
# Si number density = 20.548886 Si / 1000 Ang^3
#
#
#
# Elastic Constant Matrix: (Units=GPa)
#
#
# Indices 1 2 3 4 5 6 
#
# 1 91.4962 23.5170 29.9793 0.0000 0.0000 -1.6313
# 2 23.5170 91.4962 29.9793 0.0000 0.0000 1.6313
# 3 29.9793 29.9793 92.5305 0.0000 0.0000 0.0000
# 4 0.0000 0.0000 0.0000 15.1658 0.0000 0.0000
# 5 0.0000 0.0000 0.0000 0.0000 15.1658 0.0000
# 6 -1.6313 1.6313 0.0000 0.0000 0.0000 22.8925
#
#
#
# Elastic Compliance Matrix: (Units=1/GPa)
#
#
# Indices 1 2 3 4 5 6 
#
# 1 0.012611 -0.002150 -0.003390 0.000000 0.000000 0.001052
# 2 -0.002150 0.012611 -0.003390 0.000000 0.000000 -0.001052
# 3 -0.003390 -0.003390 0.013004 0.000000 0.000000 0.000000
# 4 0.000000 0.000000 0.000000 0.065938 0.000000 0.000000
# 5 0.000000 0.000000 0.000000 0.000000 0.065938 0.000000
# 6 0.001052 -0.001052 0.000000 0.000000 0.000000 0.043832
#
#
# Mechanical properties :
#
#
# Convention : Reuss Voigt Hill
#
# Bulk Modulus (GPa) = 49.09445 49.16377 49.12911
# Shear Modulus (GPa) = 20.95721 23.44796 22.20259
#
# Velocity S-wave (km/s) = 3.19701 3.38165 3.29063
# Velocity P-wave (km/s) = 6.12954 6.26296 6.19661
#
# Compressibility (1/GPa) = 0.02036890
#
# Stress axis : x y z
#
# Youngs Moduli (GPa) = 79.29412 79.29412 76.90170
#
# Poissons Ratio (x) = 0.17045 0.26066
# Poissons Ratio (y) = 0.17045 0.26066
# Poissons Ratio (z) = 0.26877 0.26877
#
# Static dielectric constant tensor:
#      x y z
#    x 1.792300 0.000000 0.000000 
#    y 0.000000 1.792300 0.000000 
#    z 0.000000 0.000000 1.712520 
# 
# From -- ./inp_files/1781.got.cif
#   From: 2010.05.17/outbox.cif.g08.bks.cpg/sg81_cif.got.tgz:1781.got - 2010.06.03 18:51:07.
