data_PCOD9542811
_publ_section_title
;
Structure prediction by ZEFSAII (Michael W. Deem and Ramdas Pophale) SiO2 
 PCOD9542811
Probable space group: I -4 
;
_chemical_formula_sum "Si O2"
_cell_formula_units_Z 48
_cell_length_a 8.127962
_cell_length_b 8.127962
_cell_length_c 34.653436
_cell_angle_alpha 90.000000
_cell_angle_beta 90.000000
_cell_angle_gamma 90.000000
_cell_volume 2289.336496
_symmetry_space_group_name_H-M "I -4 "
_symmetry_group_IT_number 82
_symmetry_cell_setting 'tetragonal'
loop_
_space_group_symop_operation_xyz
x,y,z
y,-x,-z
-x,-y,z
-y,x,-z
1/2+x,1/2+y,1/2+z
1/2+y,1/2-x,1/2-z
1/2-x,1/2-y,1/2+z
1/2-y,1/2+x,1/2-z
loop_
_atom_site_type_symbol
_atom_site_label
_atom_site_fract_x
_atom_site_fract_y
_atom_site_fract_z
Si Si1 0.751706 0.751705 0.338743
Si Si2 0.500000 0.000000 0.124676
Si Si3 0.751965 0.398957 0.007813
Si Si4 0.258055 0.092081 0.919541
Si Si5 0.500000 0.500000 0.198053
Si Si6 0.753679 0.901246 0.757238
Si Si7 0.101428 0.751047 0.934246
O O1 0.602913 0.870965 0.350671
O O2 0.794017 0.638469 0.375404
O O3 0.706037 0.648555 0.300793
O O4 0.903826 0.867862 0.327281
O O5 0.603843 0.881146 0.096395
O O6 0.829908 0.383896 0.050036
O O7 0.582677 0.295645 0.004661
O O8 0.873766 0.318687 0.976830
O O9 0.082055 0.177770 0.929266
O O10 0.226129 0.899452 0.925717
O O11 0.400427 0.379400 0.226886
O O12 0.592609 0.798807 0.744851
#
# Coordination Sequence:
#
# PCOD9542811 Si02
#       7
#     8   4   8   8   4   8   8
#     4  10  22  39  60  88 121 154 200 250 301 365
#     4  10  22  38  61  90 120 152 194 256 305 346
#     4  11  23  38  57  84 120 159 202 249 295 351
#     4  10  22  38  60  87 114 156 200 244 302 357
#     4  10  22  38  62  88 119 156 195 250 300 358
#     4   9  20  40  61  84 117 159 198 241 305 376
#     4  10  21  39  59  83 119 157 196 242 297 363
#
# _framework density 20.966771999999999
#
# number of rings (size 3 to 8) (size 9 to 14) (size 15 to 20)
#    0.000    2.000    0.000    3.000    0.000   12.667 
#    0.000    5.000    0.000    0.000    0.000    0.000 
#    0.000    0.000    0.000    0.000    0.000    0.000 
#
# Total GULP energy -134205.841937 kJ/mol
# GULP energy per Si atom -5591.910081 kJ/mol
# Density = 2.091905 g / cm^3
# Si number density = 20.966772 Si / 1000 Ang^3
#
#
#
# Elastic Constant Matrix: (Units=GPa)
#
#
# Indices 1 2 3 4 5 6 
#
# 1 65.0703 13.3417 34.4947 0.0000 0.0000 -3.1004
# 2 13.3417 65.0703 34.4947 0.0000 0.0000 3.1004
# 3 34.4947 34.4947 138.3938 0.0000 0.0000 0.0000
# 4 0.0000 0.0000 0.0000 28.3475 0.0000 0.0000
# 5 0.0000 0.0000 0.0000 0.0000 28.3475 0.0000
# 6 -3.1004 3.1004 0.0000 0.0000 0.0000 13.9948
#
#
#
# Elastic Compliance Matrix: (Units=1/GPa)
#
#
# Indices 1 2 3 4 5 6 
#
# 1 0.018097 -0.001762 -0.004072 0.000000 0.000000 0.004400
# 2 -0.001762 0.018097 -0.004072 0.000000 0.000000 -0.004400
# 3 -0.004072 -0.004072 0.009255 0.000000 0.000000 0.000000
# 4 0.000000 0.000000 0.000000 0.035276 0.000000 0.000000
# 5 0.000000 0.000000 0.000000 0.000000 0.035276 0.000000
# 6 0.004400 -0.004400 0.000000 0.000000 0.000000 0.073405
#
#
# Mechanical properties :
#
#
# Convention : Reuss Voigt Hill
#
# Bulk Modulus (GPa) = 39.00162 48.13293 43.56728
# Shear Modulus (GPa) = 22.96063 26.55152 24.75607
#
# Velocity S-wave (km/s) = 3.31281 3.56246 3.43990
# Velocity P-wave (km/s) = 5.76845 6.31887 6.04992
#
# Compressibility (1/GPa) = 0.02563996
#
# Stress axis : x y z
#
# Youngs Moduli (GPa) = 55.25696 55.25697 108.04436
#
# Poissons Ratio (x) = 0.09735 0.43992
# Poissons Ratio (y) = 0.09735 0.43992
# Poissons Ratio (z) = 0.22499 0.22499
#
# Static dielectric constant tensor:
#      x y z
#    x 1.764040 0.000000 0.000000 
#    y 0.000000 1.764040 0.000000 
#    z 0.000000 0.000000 1.724820 
# 
# From -- ./inp_files/4070.got.cif
#   From: 2010.05.17/outbox.cif.g08.bks.cpg/sg82_3_cif.got.tgz:4070.got - 2010.06.03 18:52:26.
