data_PCOD9542058
_publ_section_title
;
Structure prediction by ZEFSAII (Michael W. Deem and Ramdas Pophale) SiO2 
 PCOD9542058
Probable space group: I 41
;
_chemical_formula_sum "Si O2"
_cell_formula_units_Z 40
_cell_length_a 7.341464
_cell_length_b 7.341464
_cell_length_c 29.349653
_cell_angle_alpha 90.000000
_cell_angle_beta 90.000000
_cell_angle_gamma 90.000000
_cell_volume 1581.860997
_symmetry_space_group_name_H-M "I 41"
_symmetry_group_IT_number 80
_symmetry_cell_setting 'tetragonal'
loop_
_space_group_symop_operation_xyz
x,y,z
-y,1/2+x,1/4+z
-x,-y,z
y,1/2-x,1/4+z
1/2+x,1/2+y,1/2+z
1/2-y,x,3/4+z
1/2-x,1/2-y,1/2+z
1/2+y,-x,3/4+z
loop_
_atom_site_type_symbol
_atom_site_label
_atom_site_fract_x
_atom_site_fract_y
_atom_site_fract_z
Si Si1 0.719076 0.351819 0.178210
Si Si2 0.310784 0.940757 0.108524
Si Si3 0.046963 0.791431 0.837646
Si Si4 0.791949 0.947480 0.491033
Si Si5 0.104650 0.176716 0.179676
O O1 0.635071 0.171407 0.154035
O O2 0.700518 0.495446 0.136910
O O3 0.609969 0.344046 0.224781
O O4 0.934397 0.313656 0.179393
O O5 0.226025 0.768363 0.081309
O O6 0.500000 0.000000 0.086332
O O7 0.183487 0.099409 0.130684
O O8 0.934081 0.718525 0.795447
O O9 0.000000 0.000000 0.840765
O O10 0.755667 0.764089 0.462671
O O11 0.000000 0.000000 0.482996
O O12 0.000000 0.000000 0.199882
#
# Coordination Sequence:
#
# PCOD9542058 Si02
#       5
#     8   8   8   8   8
#     4   9  20  41  68  95 142 191 244 301 377 445
#     4   9  16  39  68  94 132 186 243 297 360 446
#     4  10  24  43  56  99 153 176 231 311 367 447
#     4  12  20  42  69 105 140 184 255 305 364 460
#     4  10  16  36  73  94 126 195 239 297 356 454
#
# _framework density 25.286674000000001
#
# number of rings (size 3 to 8) (size 9 to 14) (size 15 to 20)
#    1.200    0.800    6.000    0.000    0.000    0.000 
#   14.400    2.000    0.000    0.000    0.000    0.000 
#    0.000    0.000    0.000    0.000    0.000    0.000 
#
# Total GULP energy -111440.579225 kJ/mol
# GULP energy per Si atom -5572.028961 kJ/mol
# Density = 2.522912 g / cm^3
# Si number density = 25.286674 Si / 1000 Ang^3
#
#
#
# Elastic Constant Matrix: (Units=GPa)
#
#
# Indices 1 2 3 4 5 6 
#
# 1 147.2055 49.2895 37.6351 0.0000 0.0000 -1.6241
# 2 49.2895 147.2055 37.6351 0.0000 0.0000 1.6241
# 3 37.6351 37.6351 128.4684 0.0000 0.0000 0.0000
# 4 0.0000 0.0000 0.0000 3.9946 0.0000 0.0000
# 5 0.0000 0.0000 0.0000 0.0000 3.9946 0.0000
# 6 -1.6241 1.6241 0.0000 0.0000 0.0000 43.3112
#
#
#
# Elastic Compliance Matrix: (Units=1/GPa)
#
#
# Indices 1 2 3 4 5 6 
#
# 1 0.007979 -0.002247 -0.001679 0.000000 0.000000 0.000383
# 2 -0.002247 0.007979 -0.001679 0.000000 0.000000 -0.000383
# 3 -0.001679 -0.001679 0.008768 0.000000 0.000000 0.000000
# 4 0.000000 0.000000 0.000000 0.250338 0.000000 0.000000
# 5 0.000000 0.000000 0.000000 0.000000 0.250338 0.000000
# 6 0.000383 -0.000383 0.000000 0.000000 0.000000 0.023117
#
#
# Mechanical properties :
#
#
# Convention : Reuss Voigt Hill
#
# Bulk Modulus (GPa) = 73.98890 74.66655 74.32772
# Shear Modulus (GPa) = 8.86156 30.14806 19.50481
#
# Velocity S-wave (km/s) = 1.87405 3.45664 2.78033
# Velocity P-wave (km/s) = 5.83149 6.74710 6.30593
#
# Compressibility (1/GPa) = 0.01351554
#
# Stress axis : x y z
#
# Youngs Moduli (GPa) = 125.32864 125.32864 114.05172
#
# Poissons Ratio (x) = 0.28156 0.19153
# Poissons Ratio (y) = 0.28156 0.19153
# Poissons Ratio (z) = 0.21047 0.21047
#
# Static dielectric constant tensor:
#      x y z
#    x 2.268180 0.000000 0.000000 
#    y 0.000000 2.268180 0.000000 
#    z 0.000000 0.000000 1.999360 
# 
# From -- ./inp_files/2315.got.cif
#   From: 2010.05.17/outbox.cif.g08.bks.cpg/sg80_cif.got.tgz:2315.got - 2010.06.03 18:49:13.
