data_PCOD9543240
_publ_section_title
;
Structure prediction by ZEFSAII (Michael W. Deem and Ramdas Pophale) SiO2 
 PCOD9543240
Probable space group: P 4/M
;
_chemical_formula_sum "Si O2"
_cell_formula_units_Z 48
_cell_length_a 18.394928
_cell_length_b 18.394928
_cell_length_c 8.415857
_cell_angle_alpha 90.000000
_cell_angle_beta 90.000000
_cell_angle_gamma 90.000000
_cell_volume 2847.701946
_symmetry_space_group_name_H-M "P 4/M"
_symmetry_group_IT_number 83
_symmetry_cell_setting 'tetragonal'
loop_
_space_group_symop_operation_xyz
x,y,z
-y,x,z
-x,-y,z
y,-x,z
-x,-y,-z
y,-x,-z
x,y,-z
-y,x,-z
loop_
_atom_site_type_symbol
_atom_site_label
_atom_site_fract_x
_atom_site_fract_y
_atom_site_fract_z
Si Si1 0.083740 0.796879 0.307274
Si Si2 0.682744 0.192803 0.313245
Si Si3 0.696026 0.801216 0.187424
Si Si4 0.917389 0.798604 0.306461
Si Si5 0.415304 0.300501 0.312226
Si Si6 0.423497 0.694661 0.186999
O O1 0.085813 0.793213 0.500000
O O2 0.119688 0.723739 0.237721
O O3 0.135362 0.864377 0.256756
O O4 0.000526 0.806795 0.256534
O O5 0.666035 0.187762 0.500000
O O6 0.747090 0.251544 0.286100
O O7 0.721812 0.118888 0.257203
O O8 0.614718 0.227915 0.224550
O O9 0.616333 0.773025 0.232620
O O10 0.707713 0.790112 0.000000
O O11 0.916149 0.798752 0.500000
O O12 0.404530 0.296298 0.500000
O O13 0.367108 0.367353 0.246140
O O14 0.499351 0.311108 0.271984
O O15 0.433558 0.686630 0.000000
#
# Coordination Sequence:
#
# PCOD9543240 Si02
#       6
#     8   8   8   8   8   8
#     4   9  16  29  46  69  97 129 163 201 242 288
#     4   9  16  30  49  70  93 125 164 201 236 282
#     4  10  18  30  47  69  93 124 162 202 240 282
#     4   8  15  26  46  71  97 126 163 202 240 283
#     4  11  21  35  53  74  98 129 162 196 235 283
#     4  11  21  34  51  75 102 129 158 196 239 284
#
# _framework density 16.855696999999999
#
# number of rings (size 3 to 8) (size 9 to 14) (size 15 to 20)
#    0.000    2.333    0.000    8.000    0.000    0.667 
#    0.000    7.500    0.000    1.000    0.000   11.667 
#    0.000    0.000    0.000    0.000    0.000    0.000 
#
# Total GULP energy -267444.851445 kJ/mol
# GULP energy per Si atom -5571.767738 kJ/mol
# Density = 1.681733 g / cm^3
# Si number density = 16.855697 Si / 1000 Ang^3
#
#
#
# Elastic Constant Matrix: (Units=GPa)
#
#
# Indices 1 2 3 4 5 6 
#
# 1 56.8138 60.9155 4.8858 0.0000 0.0000 0.1033
# 2 60.9155 56.8138 4.8858 0.0000 0.0000 -0.1033
# 3 4.8858 4.8858 48.6855 0.0000 0.0000 0.0000
# 4 0.0000 0.0000 0.0000 -1.9850 0.0000 0.0000
# 5 0.0000 0.0000 0.0000 0.0000 -1.9850 0.0000
# 6 0.1033 -0.1033 0.0000 0.0000 0.0000 17.6826
#
#
#
# Elastic Compliance Matrix: (Units=1/GPa)
#
#
# Indices 1 2 3 4 5 6 
#
# 1 -0.117582 0.126148 -0.000860 0.000000 0.000000 0.001424
# 2 0.126148 -0.117582 -0.000860 0.000000 0.000000 -0.001424
# 3 -0.000860 -0.000860 0.020713 0.000000 0.000000 0.000000
# 4 0.000000 0.000000 0.000000 -0.503776 0.000000 0.000000
# 5 0.000000 0.000000 0.000000 0.000000 -0.503776 0.000000
# 6 0.001424 -0.001424 0.000000 0.000000 0.000000 0.056536
#
#
# Mechanical properties :
#
#
# Convention : Reuss Voigt Hill
#
# Bulk Modulus (GPa) = 29.06549 33.74300 31.40425
# Shear Modulus (GPa) = -3.56415 8.85092 2.64338
#
# Velocity S-wave (km/s) = -1.45571 2.29399 1.25365
# Velocity P-wave (km/s) = 3.80206 5.20372 4.55711
#
# Compressibility (1/GPa) = 0.03440506
#
# Stress axis : x y z
#
# Youngs Moduli (GPa) = -8.50469 -8.50469 48.28001
#
# Poissons Ratio (x) = 1.07285 0.04150
# Poissons Ratio (y) = 1.07285 0.04150
# Poissons Ratio (z) = -0.00731 -0.00731
#
# Static dielectric constant tensor:
#      x y z
#    x 1.582580 0.000000 0.000000 
#    y 0.000000 1.582580 0.000000 
#    z 0.000000 0.000000 1.565820 
# 
# From -- ./inp_files/941.got.cif
#   From: 2010.05.17/outbox.cif.g08.bks.cpg/sg83_1_cif.got.tgz:941.got - 2010.06.03 18:55:12.
