data_PCOD9543142
_publ_section_title
;
Structure prediction by ZEFSAII (Michael W. Deem and Ramdas Pophale) SiO2 
 PCOD9543142
Probable space group: I -4 
;
_chemical_formula_sum "Si O2"
_cell_formula_units_Z 40
_cell_length_a 18.336575
_cell_length_b 18.336575
_cell_length_c 4.740754
_cell_angle_alpha 90.000000
_cell_angle_beta 90.000000
_cell_angle_gamma 90.000000
_cell_volume 1593.983636
_symmetry_space_group_name_H-M "I -4 "
_symmetry_group_IT_number 82
_symmetry_cell_setting 'tetragonal'
loop_
_space_group_symop_operation_xyz
x,y,z
y,-x,-z
-x,-y,z
-y,x,-z
1/2+x,1/2+y,1/2+z
1/2+y,1/2-x,1/2-z
1/2-x,1/2-y,1/2+z
1/2-y,1/2+x,1/2-z
loop_
_atom_site_type_symbol
_atom_site_label
_atom_site_fract_x
_atom_site_fract_y
_atom_site_fract_z
Si Si1 0.576530 0.828039 0.710913
Si Si2 0.233095 0.298172 0.973260
Si Si3 0.167397 0.943340 0.751755
Si Si4 0.529206 0.088423 0.401054
Si Si5 0.107215 0.859817 0.269496
O O1 0.651435 0.823763 0.536224
O O2 0.568789 0.749636 0.859573
O O3 0.504563 0.836360 0.511477
O O4 0.580641 0.894556 0.934220
O O5 0.254473 0.226014 0.153509
O O6 0.288781 0.359166 0.080733
O O7 0.111195 0.920982 0.510425
O O8 0.155506 0.026406 0.834746
O O9 0.155503 0.890343 0.015353
O O10 0.447123 0.047696 0.408106
#
# Coordination Sequence:
#
# PCOD9543142 Si02
#       5
#     8   8   8   8   8
#     4  12  26  50  76 112 158 213 253 328 386 472
#     4  12  25  49  78 112 153 198 265 322 372 469
#     4  12  28  49  81 111 157 196 265 321 404 457
#     4  11  25  44  72 110 156 200 259 304 383 477
#     4  12  26  51  75 120 143 203 256 325 395 471
#
# _framework density 25.094363000000001
#
# number of rings (size 3 to 8) (size 9 to 14) (size 15 to 20)
#    0.000    0.200    4.000    4.800    5.600    2.400 
#    7.200    0.000    0.000    0.000    0.000    0.000 
#    0.000    0.000    0.000    0.000    0.000    0.000 
#
# Total GULP energy -111622.984622 kJ/mol
# GULP energy per Si atom -5581.149231 kJ/mol
# Density = 2.503725 g / cm^3
# Si number density = 25.094363 Si / 1000 Ang^3
#
#
#
# Elastic Constant Matrix: (Units=GPa)
#
#
# Indices 1 2 3 4 5 6 
#
# 1 119.4085 27.6867 10.6987 0.0000 0.0000 -6.5633
# 2 27.6867 119.4085 10.6987 0.0000 0.0000 6.5633
# 3 10.6987 10.6987 50.9726 0.0000 0.0000 0.0000
# 4 0.0000 0.0000 0.0000 34.8822 0.0000 0.0000
# 5 0.0000 0.0000 0.0000 0.0000 34.8822 0.0000
# 6 -6.5633 6.5633 0.0000 0.0000 0.0000 38.6143
#
#
#
# Elastic Compliance Matrix: (Units=1/GPa)
#
#
# Indices 1 2 3 4 5 6 
#
# 1 0.009093 -0.002081 -0.001472 0.000000 0.000000 0.001899
# 2 -0.002081 0.009093 -0.001472 0.000000 0.000000 -0.001899
# 3 -0.001472 -0.001472 0.020236 0.000000 0.000000 0.000000
# 4 0.000000 0.000000 0.000000 0.028668 0.000000 0.000000
# 5 0.000000 0.000000 0.000000 0.000000 0.028668 0.000000
# 6 0.001899 -0.001899 0.000000 0.000000 0.000000 0.026543
#
#
# Mechanical properties :
#
#
# Convention : Reuss Voigt Hill
#
# Bulk Modulus (GPa) = 35.24389 43.10639 39.17514
# Shear Modulus (GPa) = 35.25875 37.72279 36.49077
#
# Velocity S-wave (km/s) = 3.75246 3.88137 3.81746
# Velocity P-wave (km/s) = 5.73146 6.10751 5.92247
#
# Compressibility (1/GPa) = 0.02837371
#
# Stress axis : x y z
#
# Youngs Moduli (GPa) = 109.97007 109.97007 49.41635
#
# Poissons Ratio (x) = 0.22884 0.07273
# Poissons Ratio (y) = 0.22884 0.07273
# Poissons Ratio (z) = 0.16186 0.16186
#
# Static dielectric constant tensor:
#      x y z
#    x 2.056960 0.000000 0.000000 
#    y 0.000000 2.056960 0.000000 
#    z 0.000000 0.000000 2.062660 
# 
# From -- ./inp_files/232.got.cif
#   From: 2010.05.17/outbox.cif.g08.bks.cpg/sg82_1_cif.got.tgz:232.got - 2010.06.03 18:52:26.
