data_PCOD9543239
_publ_section_title
;
Structure prediction by ZEFSAII (Michael W. Deem and Ramdas Pophale) SiO2 
 PCOD9543239
Probable space group: P 4/M
;
_chemical_formula_sum "Si O2"
_cell_formula_units_Z 44
_cell_length_a 15.149110
_cell_length_b 15.149110
_cell_length_c 12.802709
_cell_angle_alpha 90.000000
_cell_angle_beta 90.000000
_cell_angle_gamma 90.000000
_cell_volume 2938.164536
_symmetry_space_group_name_H-M "P 4/M"
_symmetry_group_IT_number 83
_symmetry_cell_setting 'tetragonal'
loop_
_space_group_symop_operation_xyz
x,y,z
-y,x,z
-x,-y,z
y,-x,z
-x,-y,-z
y,-x,-z
x,y,-z
-y,x,-z
loop_
_atom_site_type_symbol
_atom_site_label
_atom_site_fract_x
_atom_site_fract_y
_atom_site_fract_z
Si Si1 0.132467 0.768519 0.627091
Si Si2 0.903600 0.543018 0.374700
Si Si3 0.762260 0.403844 0.306363
Si Si4 0.633679 0.438695 0.876837
Si Si5 0.255035 0.930479 0.626540
Si Si6 0.435212 0.366360 0.500000
O O1 0.136073 0.760405 0.500000
O O2 0.181393 0.684055 0.674232
O O3 0.184494 0.856889 0.658027
O O4 0.029935 0.768529 0.658544
O O5 0.886748 0.538462 0.500000
O O6 0.828608 0.486144 0.319238
O O7 0.906089 0.645187 0.341868
O O8 0.000000 0.500000 0.357701
O O9 0.710881 0.406238 0.197617
O O10 0.689697 0.410520 0.398215
O O11 0.612536 0.541914 0.855473
O O12 0.652755 0.429832 0.000000
O O13 0.255967 0.930981 0.500000
O O14 0.539708 0.386231 0.500000
#
# Coordination Sequence:
#
# PCOD9543239 Si02
#       6
#     8   8   8   8   8   4
#     4  10  19  32  45  72  99 134 176 208 252 297
#     4  10  18  30  45  69 103 138 163 192 246 309
#     4  12  20  30  52  73  99 132 168 205 246 302
#     4   9  20  38  54  69  95 134 175 207 241 292
#     4   9  19  30  46  64 100 138 173 210 240 297
#     4  11  24  32  39  70 110 131 154 195 251 296
#
# _framework density 14.975334999999999
#
# number of rings (size 3 to 8) (size 9 to 14) (size 15 to 20)
#    0.000    1.909    3.636    1.636    5.091    1.818 
#    0.000    1.818    0.000    0.545    0.000    1.273 
#    0.000    0.000    0.000    1.636    0.000    0.182 
#
# Total GULP energy -245501.321511 kJ/mol
# GULP energy per Si atom -5579.575489 kJ/mol
# Density = 1.494125 g / cm^3
# Si number density = 14.975335 Si / 1000 Ang^3
#
#
#
# Elastic Constant Matrix: (Units=GPa)
#
#
# Indices 1 2 3 4 5 6 
#
# 1 116.6165 82.3013 29.5608 0.0000 0.0000 -5.6247
# 2 82.3013 116.6165 29.5608 0.0000 0.0000 5.6247
# 3 29.5608 29.5608 32.2839 0.0000 0.0000 0.0000
# 4 0.0000 0.0000 0.0000 12.9723 0.0000 0.0000
# 5 0.0000 0.0000 0.0000 0.0000 12.9723 0.0000
# 6 -5.6247 5.6247 0.0000 0.0000 0.0000 25.0118
#
#
#
# Elastic Compliance Matrix: (Units=1/GPa)
#
#
# Indices 1 2 3 4 5 6 
#
# 1 0.019184 -0.012277 -0.006324 0.000000 0.000000 0.007075
# 2 -0.012277 0.019184 -0.006324 0.000000 0.000000 -0.007075
# 3 -0.006324 -0.006324 0.042557 0.000000 0.000000 0.000000
# 4 0.000000 0.000000 0.000000 0.077087 0.000000 0.000000
# 5 0.000000 0.000000 0.000000 0.000000 0.077087 0.000000
# 6 0.007075 -0.007075 0.000000 0.000000 0.000000 0.043163
#
#
# Mechanical properties :
#
#
# Convention : Reuss Voigt Hill
#
# Bulk Modulus (GPa) = 32.18179 60.92918 46.55548
# Shear Modulus (GPa) = 14.77228 18.46421 16.61825
#
# Velocity S-wave (km/s) = 3.14417 3.51518 3.33484
# Velocity P-wave (km/s) = 5.89217 7.56638 6.78114
#
# Compressibility (1/GPa) = 0.03107348
#
# Stress axis : x y z
#
# Youngs Moduli (GPa) = 52.12683 52.12683 23.49796
#
# Poissons Ratio (x) = 0.63997 0.14861
# Poissons Ratio (y) = 0.63997 0.14861
# Poissons Ratio (z) = 0.32967 0.32967
#
# Static dielectric constant tensor:
#      x y z
#    x 1.497080 0.000000 0.000000 
#    y 0.000000 1.497080 0.000000 
#    z 0.000000 0.000000 1.461250 
# 
# From -- ./inp_files/1699.got.cif
#   From: 2010.05.17/outbox.cif.g08.bks.cpg/sg83_1_cif.got.tgz:1699.got - 2010.06.03 18:55:12.
