data_PCOD9543648
_publ_section_title
;
Structure prediction by ZEFSAII (Michael W. Deem and Ramdas Pophale) SiO2 
 PCOD9543648
Probable space group: P 4/M
;
_chemical_formula_sum "Si O2"
_cell_formula_units_Z 40
_cell_length_a 9.718021
_cell_length_b 9.718021
_cell_length_c 23.020096
_cell_angle_alpha 90.000000
_cell_angle_beta 90.000000
_cell_angle_gamma 90.000000
_cell_volume 2174.016304
_symmetry_space_group_name_H-M "P 4/M"
_symmetry_group_IT_number 83
_symmetry_cell_setting 'tetragonal'
loop_
_space_group_symop_operation_xyz
x,y,z
-y,x,z
-x,-y,z
y,-x,z
-x,-y,-z
y,-x,-z
x,y,-z
-y,x,-z
loop_
_atom_site_type_symbol
_atom_site_label
_atom_site_fract_x
_atom_site_fract_y
_atom_site_fract_z
Si Si1 0.167744 0.359313 0.228744
Si Si2 0.705754 0.605781 0.356426
Si Si3 0.891391 0.801432 0.569777
Si Si4 0.960485 0.229741 0.935146
Si Si5 0.123080 0.648702 0.182630
O O1 0.235504 0.371430 0.291726
O O2 0.190054 0.500939 0.193931
O O3 0.235243 0.232775 0.195898
O O4 0.003497 0.339350 0.227793
O O5 0.557104 0.679040 0.364001
O O6 0.814218 0.676054 0.399691
O O7 0.884574 0.788222 0.500000
O O8 0.052625 0.818947 0.585530
O O9 0.936396 0.331389 0.881777
O O10 0.107214 0.152492 0.930724
O O11 0.949858 0.290396 0.000000
#
# Coordination Sequence:
#
# PCOD9543648 Si02
#       5
#     8   8   8   8   8
#     4  11  24  38  59  87 122 159 200 249 302 362
#     4  11  24  41  61  88 123 165 206 249 301 362
#     4   9  21  42  66  94 128 163 201 250 305 353
#     4   9  17  33  59  88 118 155 200 253 306 358
#     4  11  22  39  59  88 121 158 201 242 309 365
#
# _framework density 18.399125999999999
#
# number of rings (size 3 to 8) (size 9 to 14) (size 15 to 20)
#    0.000    1.800    4.000    1.200    2.800    2.400 
#    0.000    6.000    0.000    0.000    0.000    1.400 
#    0.000    0.000    0.000    0.000    0.000    0.000 
#
# Total GULP energy -223219.779307 kJ/mol
# GULP energy per Si atom -5580.494483 kJ/mol
# Density = 1.835725 g / cm^3
# Si number density = 18.399126 Si / 1000 Ang^3
#
#
#
# Elastic Constant Matrix: (Units=GPa)
#
#
# Indices 1 2 3 4 5 6 
#
# 1 66.3760 27.2538 23.1896 0.0000 0.0000 2.3877
# 2 27.2538 66.3760 23.1896 0.0000 0.0000 -2.3877
# 3 23.1896 23.1896 62.3793 0.0000 0.0000 0.0000
# 4 0.0000 0.0000 0.0000 24.8865 0.0000 0.0000
# 5 0.0000 0.0000 0.0000 0.0000 24.8865 0.0000
# 6 2.3877 -2.3877 0.0000 0.0000 0.0000 36.7884
#
#
#
# Elastic Compliance Matrix: (Units=1/GPa)
#
#
# Indices 1 2 3 4 5 6 
#
# 1 0.019428 -0.006337 -0.004867 0.000000 0.000000 -0.001672
# 2 -0.006337 0.019428 -0.004867 0.000000 0.000000 0.001672
# 3 -0.004867 -0.004867 0.019649 0.000000 0.000000 0.000000
# 4 0.000000 0.000000 0.000000 0.040182 0.000000 0.000000
# 5 0.000000 0.000000 0.000000 0.000000 0.040182 0.000000
# 6 -0.001672 0.001672 0.000000 0.000000 0.000000 0.027400
#
#
# Mechanical properties :
#
#
# Convention : Reuss Voigt Hill
#
# Bulk Modulus (GPa) = 37.92920 38.04414 37.98667
# Shear Modulus (GPa) = 24.13143 25.41216 24.77179
#
# Velocity S-wave (km/s) = 3.62547 3.72043 3.67325
# Velocity P-wave (km/s) = 6.17938 6.25919 6.21942
#
# Compressibility (1/GPa) = 0.02636491
#
# Stress axis : x y z
#
# Youngs Moduli (GPa) = 51.47195 51.47195 50.89240
#
# Poissons Ratio (x) = 0.32618 0.24767
# Poissons Ratio (y) = 0.32618 0.24767
# Poissons Ratio (z) = 0.25049 0.25049
#
# Static dielectric constant tensor:
#      x y z
#    x 1.633690 0.000000 0.000000 
#    y 0.000000 1.633690 0.000000 
#    z 0.000000 0.000000 1.622590 
# 
# From -- ./inp_files/3091.got.cif
#   From: 2010.05.17/outbox.cif.g08.bks.cpg/sg83_2_cif.got.tgz:3091.got - 2010.06.03 18:55:12.
