data_PCOD9543201
_publ_section_title
;
Structure prediction by ZEFSAII (Michael W. Deem and Ramdas Pophale) SiO2 
 PCOD9543201
Probable space group: I -4 
;
_chemical_formula_sum "Si O2"
_cell_formula_units_Z 38
_cell_length_a 11.072122
_cell_length_b 11.072122
_cell_length_c 14.532283
_cell_angle_alpha 90.000000
_cell_angle_beta 90.000000
_cell_angle_gamma 90.000000
_cell_volume 1781.539975
_symmetry_space_group_name_H-M "I -4 "
_symmetry_group_IT_number 82
_symmetry_cell_setting 'tetragonal'
loop_
_space_group_symop_operation_xyz
x,y,z
y,-x,-z
-x,-y,z
-y,x,-z
1/2+x,1/2+y,1/2+z
1/2+y,1/2-x,1/2-z
1/2-x,1/2-y,1/2+z
1/2-y,1/2+x,1/2-z
loop_
_atom_site_type_symbol
_atom_site_label
_atom_site_fract_x
_atom_site_fract_y
_atom_site_fract_z
Si Si1 0.000000 0.500000 0.250000
Si Si2 0.327151 0.028094 0.397491
Si Si3 0.336727 0.310428 0.378018
Si Si4 0.000000 0.000000 0.000000
Si Si5 0.051673 0.306493 0.402648
Si Si6 0.000000 0.500000 0.750000
Si Si7 0.904721 0.091978 0.318005
O O1 0.016061 0.387324 0.316287
O O2 0.364848 0.167660 0.385472
O O3 0.355922 0.994134 0.500826
O O4 0.398816 0.954926 0.319563
O O5 0.190425 0.987719 0.375797
O O6 0.421482 0.402139 0.438397
O O7 0.196519 0.309705 0.408424
O O8 0.343722 0.345838 0.270286
O O9 0.980092 0.182131 0.382955
O O10 0.000000 0.000000 0.275189
#
# Coordination Sequence:
#
# PCOD9543201 Si02
#       7
#     2   8   8   2   8   2   8
#     4  12  26  44  72 110 152 200 254 312 376 450
#     4  12  27  47  76 110 152 200 259 314 382 458
#     4  12  27  51  75 109 157 202 252 327 387 459
#     4  12  32  48  76 112 150 200 260 316 404 468
#     4  12  27  47  76 110 152 200 259 314 382 458
#     4  12  26  44  72 110 152 200 254 312 376 450
#     4  12  25  48  75 107 152 194 253 316 384 458
#
# _framework density 21.329858999999999
#
# number of rings (size 3 to 8) (size 9 to 14) (size 15 to 20)
#    0.000    0.000    7.368    1.895    5.895    0.000 
#    7.579    0.000    0.000    0.000    0.000    0.000 
#    0.000    0.000    0.000    0.000    0.000    0.000 
#
# Total GULP energy -106045.014386 kJ/mol
# GULP energy per Si atom -5581.316547 kJ/mol
# Density = 2.128131 g / cm^3
# Si number density = 21.329859 Si / 1000 Ang^3
#
#
#
# Elastic Constant Matrix: (Units=GPa)
#
#
# Indices 1 2 3 4 5 6 
#
# 1 124.8592 37.7976 39.1371 0.0000 0.0000 -2.5460
# 2 37.7976 124.8592 39.1371 0.0000 0.0000 2.5460
# 3 39.1371 39.1371 140.8079 0.0000 0.0000 0.0000
# 4 0.0000 0.0000 0.0000 -38.4378 0.0000 0.0000
# 5 0.0000 0.0000 0.0000 0.0000 -38.4377 0.0000
# 6 -2.5460 2.5460 0.0000 0.0000 0.0000 38.9251
#
#
#
# Elastic Compliance Matrix: (Units=1/GPa)
#
#
# Indices 1 2 3 4 5 6 
#
# 1 0.009314 -0.002217 -0.001973 0.000000 0.000000 0.000754
# 2 -0.002217 0.009314 -0.001973 0.000000 0.000000 -0.000754
# 3 -0.001973 -0.001973 0.008198 0.000000 0.000000 0.000000
# 4 0.000000 0.000000 0.000000 -0.026016 0.000000 0.000000
# 5 0.000000 0.000000 0.000000 0.000000 -0.026016 0.000000
# 6 0.000754 -0.000754 0.000000 0.000000 0.000000 0.025789
#
#
# Mechanical properties :
#
#
# Convention : Reuss Voigt Hill
#
# Bulk Modulus (GPa) = 68.95470 69.18554 69.07012
# Shear Modulus (GPa) = 281.84261 10.70689 146.27475
#
# Velocity S-wave (km/s) = 11.50748 2.24289 8.29013
# Velocity P-wave (km/s) = 14.45548 6.26210 11.13945
#
# Compressibility (1/GPa) = 0.01450228
#
# Stress axis : x y z
#
# Youngs Moduli (GPa) = 107.36854 107.36855 121.97428
#
# Poissons Ratio (x) = 0.23798 0.24061
# Poissons Ratio (y) = 0.23798 0.24061
# Poissons Ratio (z) = 0.21180 0.21180
#
# Static dielectric constant tensor:
#      x y z
#    x 1.897240 0.000000 0.000000 
#    y 0.000000 1.897240 0.000000 
#    z 0.000000 0.000000 1.718680 
# 
# From -- ./inp_files/2239.got.cif
#   From: 2010.05.17/outbox.cif.g08.bks.cpg/sg82_2_cif.got.tgz:2239.got - 2010.06.03 18:52:26.
