data_PCOD9543690
_publ_section_title
;
Structure prediction by ZEFSAII (Michael W. Deem and Ramdas Pophale) SiO2 
 PCOD9543690
Probable space group: P 4/M
;
_chemical_formula_sum "Si O2"
_cell_formula_units_Z 38
_cell_length_a 7.940250
_cell_length_b 7.940250
_cell_length_c 26.957956
_cell_angle_alpha 90.000000
_cell_angle_beta 90.000000
_cell_angle_gamma 90.000000
_cell_volume 1699.633620
_symmetry_space_group_name_H-M "P 4/M"
_symmetry_group_IT_number 83
_symmetry_cell_setting 'tetragonal'
loop_
_space_group_symop_operation_xyz
x,y,z
-y,x,z
-x,-y,z
y,-x,z
-x,-y,-z
y,-x,-z
x,y,-z
-y,x,-z
loop_
_atom_site_type_symbol
_atom_site_label
_atom_site_fract_x
_atom_site_fract_y
_atom_site_fract_z
Si Si1 0.000000 0.500000 0.500000
Si Si2 0.233463 0.603529 0.794630
Si Si3 0.731415 0.917550 0.000000
Si Si4 0.594491 0.768709 0.901520
Si Si5 0.917155 0.269573 0.412890
Si Si6 0.603517 0.766629 0.313122
O O1 0.108167 0.597524 0.456248
O O2 0.292241 0.408456 0.794653
O O3 0.148018 0.633210 0.847824
O O4 0.152268 0.636617 0.741165
O O5 0.635244 0.875373 0.050391
O O6 0.893960 0.797169 0.000000
O O7 0.402251 0.705273 0.903267
O O8 0.881255 0.344107 0.358828
O O9 0.107176 0.201892 0.418863
O O10 0.408571 0.708777 0.316101
#
# Coordination Sequence:
#
# PCOD9543690 Si02
#       6
#     2   8   4   8   8   8
#     4  12  24  42  64  82 108 148 192 230 268 324
#     4   7  12  26  51  83 115 143 177 226 279 331
#     4  11  24  37  46  64 102 149 192 239 296 350
#     4   9  17  32  56  82 104 134 183 238 287 340
#     4  11  24  41  61  87 119 153 188 232 286 336
#     4   9  17  33  60  92 123 155 190 228 275 339
#
# _framework density 22.357756999999999
#
# number of rings (size 3 to 8) (size 9 to 14) (size 15 to 20)
#    0.000    2.632    0.000    5.053    0.000    3.368 
#    0.000    2.105    0.000   13.895    0.000    0.000 
#    0.000    0.000    0.000    0.000    0.000    0.000 
#
# Total GULP energy -211837.256417 kJ/mol
# GULP energy per Si atom -5574.664643 kJ/mol
# Density = 2.230687 g / cm^3
# Si number density = 22.357757 Si / 1000 Ang^3
#
#
#
# Elastic Constant Matrix: (Units=GPa)
#
#
# Indices 1 2 3 4 5 6 
#
# 1 51.3133 23.1109 41.8843 0.0000 0.0000 2.3116
# 2 23.1109 51.3133 41.8843 0.0000 0.0000 -2.3116
# 3 41.8843 41.8843 254.7632 0.0000 0.0000 0.0000
# 4 0.0000 0.0000 0.0000 40.1580 0.0000 0.0000
# 5 0.0000 0.0000 0.0000 0.0000 40.1580 0.0000
# 6 2.3116 -2.3116 0.0000 0.0000 0.0000 26.0771
#
#
#
# Elastic Compliance Matrix: (Units=1/GPa)
#
#
# Indices 1 2 3 4 5 6 
#
# 1 0.026234 -0.009747 -0.002711 0.000000 0.000000 -0.003190
# 2 -0.009747 0.026234 -0.002711 0.000000 0.000000 0.003190
# 3 -0.002711 -0.002711 0.004816 0.000000 0.000000 0.000000
# 4 0.000000 0.000000 0.000000 0.024902 0.000000 0.000000
# 5 0.000000 0.000000 0.000000 0.000000 0.024902 0.000000
# 6 -0.003190 0.003190 0.000000 0.000000 0.000000 0.038913
#
#
# Mechanical properties :
#
#
# Convention : Reuss Voigt Hill
#
# Bulk Modulus (GPa) = 37.10722 63.46095 50.28408
# Shear Modulus (GPa) = 26.98034 37.97932 32.47983
#
# Velocity S-wave (km/s) = 3.47761 4.12601 3.81561
# Velocity P-wave (km/s) = 5.72347 7.15154 6.47698
#
# Compressibility (1/GPa) = 0.02694893
#
# Stress axis : x y z
#
# Youngs Moduli (GPa) = 38.11827 38.11827 207.62006
#
# Poissons Ratio (x) = 0.37153 0.56278
# Poissons Ratio (y) = 0.37153 0.56278
# Poissons Ratio (z) = 0.10332 0.10332
#
# Static dielectric constant tensor:
#      x y z
#    x 1.829200 0.000000 0.000000 
#    y 0.000000 1.829200 0.000000 
#    z 0.000000 0.000000 1.832360 
# 
# From -- ./inp_files/3109.got.cif
#   From: 2010.05.17/outbox.cif.g08.bks.cpg/sg83_2_cif.got.tgz:3109.got - 2010.06.03 18:55:12.
