data_PCOD9543324
_publ_section_title
;
Structure prediction by ZEFSAII (Michael W. Deem and Ramdas Pophale) SiO2 
 PCOD9543324
Probable space group: P 4/M
;
_chemical_formula_sum "Si O2"
_cell_formula_units_Z 48
_cell_length_a 10.325880
_cell_length_b 10.325880
_cell_length_c 17.529376
_cell_angle_alpha 90.000000
_cell_angle_beta 90.000000
_cell_angle_gamma 90.000000
_cell_volume 1869.048642
_symmetry_space_group_name_H-M "P 4/M"
_symmetry_group_IT_number 83
_symmetry_cell_setting 'tetragonal'
loop_
_space_group_symop_operation_xyz
x,y,z
-y,x,z
-x,-y,z
y,-x,z
-x,-y,-z
y,-x,-z
x,y,-z
-y,x,-z
loop_
_atom_site_type_symbol
_atom_site_label
_atom_site_fract_x
_atom_site_fract_y
_atom_site_fract_z
Si Si1 0.518592 0.156928 0.415016
Si Si2 0.085166 0.310327 0.759702
Si Si3 0.944832 0.789882 0.078434
Si Si4 0.803296 0.426579 0.741874
Si Si5 0.408824 0.301953 0.913859
Si Si6 0.106893 0.182279 0.612429
O O1 0.478278 0.195651 0.500000
O O2 0.432065 0.230471 0.349846
O O3 0.677375 0.162959 0.410279
O O4 0.500000 0.000000 0.407122
O O5 0.946638 0.367869 0.738501
O O6 0.079143 0.288437 0.847902
O O7 0.192730 0.417919 0.747978
O O8 0.112727 0.190139 0.705379
O O9 0.087285 0.850309 0.080298
O O10 0.926479 0.715965 0.000000
O O11 0.756465 0.384066 0.827861
O O12 0.561228 0.334829 0.914521
O O13 0.382278 0.241249 0.000000
O O14 0.954182 0.171220 0.589810
#
# Coordination Sequence:
#
# PCOD9543324 Si02
#       6
#     8   8   8   8   8   8
#     4  10  20  40  61  79 116 162 200 238 290 359
#     4  10  19  33  49  76 111 148 185 229 285 349
#     4   9  18  31  46  68 102 143 182 218 268 340
#     4  10  20  36  55  82 110 145 196 241 286 352
#     4   9  20  39  61  84 111 147 193 249 312 365
#     4  10  20  34  57  89 120 151 192 246 299 351
#
# _framework density 25.681515000000001
#
# number of rings (size 3 to 8) (size 9 to 14) (size 15 to 20)
#    0.000    2.333    3.333    2.000    0.000    7.333 
#    0.000    5.833    0.000    0.000    0.000    1.167 
#    0.000    0.000    0.000    0.000    0.000    0.000 
#
# Total GULP energy -267440.567923 kJ/mol
# GULP energy per Si atom -5571.678498 kJ/mol
# Density = 2.562306 g / cm^3
# Si number density = 25.681515 Si / 1000 Ang^3
#
#
#
# Elastic Constant Matrix: (Units=GPa)
#
#
# Indices 1 2 3 4 5 6 
#
# 1 54.2421 20.8727 35.5370 0.0000 0.0000 -9.1397
# 2 20.8727 54.2421 35.5370 0.0000 0.0000 9.1397
# 3 35.5370 35.5370 262.7525 0.0000 0.0000 0.0000
# 4 0.0000 0.0000 0.0000 -9.3993 0.0000 0.0000
# 5 0.0000 0.0000 0.0000 0.0000 -9.3993 0.0000
# 6 -9.1397 9.1397 0.0000 0.0000 0.0000 16.9701
#
#
#
# Elastic Compliance Matrix: (Units=1/GPa)
#
#
# Indices 1 2 3 4 5 6 
#
# 1 0.028888 -0.013621 -0.002065 0.000000 0.000000 0.022894
# 2 -0.013621 0.028888 -0.002065 0.000000 0.000000 -0.022894
# 3 -0.002065 -0.002065 0.004364 0.000000 0.000000 0.000000
# 4 0.000000 0.000000 0.000000 -0.106391 0.000000 0.000000
# 5 0.000000 0.000000 0.000000 0.000000 -0.106391 0.000000
# 6 0.022894 -0.022894 0.000000 0.000000 0.000000 0.083588
#
#
# Mechanical properties :
#
#
# Convention : Reuss Voigt Hill
#
# Bulk Modulus (GPa) = 37.53958 61.68111 49.61034
# Shear Modulus (GPa) = -220.51864 18.25363 -101.13251
#
# Velocity S-wave (km/s) = -9.27648 2.66892 -6.28212
# Velocity P-wave (km/s) = 10.00442 5.79373 5.76719
#
# Compressibility (1/GPa) = 0.02663855
#
# Stress axis : x y z
#
# Youngs Moduli (GPa) = 34.61683 34.61683 229.12717
#
# Poissons Ratio (x) = 0.47152 0.47310
# Poissons Ratio (y) = 0.47152 0.47310
# Poissons Ratio (z) = 0.07148 0.07148
#
# Static dielectric constant tensor:
#      x y z
#    x 2.034640 0.000000 0.000000 
#    y 0.000000 2.034640 0.000000 
#    z 0.000000 0.000000 2.142220 
# 
# From -- ./inp_files/2636.got.cif
#   From: 2010.05.17/outbox.cif.g08.bks.cpg/sg83_2_cif.got.tgz:2636.got - 2010.06.03 18:55:12.
