data_PCOD9543296
_publ_section_title
;
Structure prediction by ZEFSAII (Michael W. Deem and Ramdas Pophale) SiO2 
 PCOD9543296
Probable space group: P 4/M
;
_chemical_formula_sum "Si O2"
_cell_formula_units_Z 64
_cell_length_a 20.633651
_cell_length_b 20.633651
_cell_length_c 8.623659
_cell_angle_alpha 90.000000
_cell_angle_beta 90.000000
_cell_angle_gamma 90.000000
_cell_volume 3671.501722
_symmetry_space_group_name_H-M "P 4/M"
_symmetry_group_IT_number 83
_symmetry_cell_setting 'tetragonal'
loop_
_space_group_symop_operation_xyz
x,y,z
-y,x,z
-x,-y,z
y,-x,z
-x,-y,-z
y,-x,-z
x,y,-z
-y,x,-z
loop_
_atom_site_type_symbol
_atom_site_label
_atom_site_fract_x
_atom_site_fract_y
_atom_site_fract_z
Si Si1 0.243532 0.393156 0.181172
Si Si2 0.629832 0.054542 0.687066
Si Si3 0.599913 0.465189 0.685601
Si Si4 0.836318 0.720886 0.681497
Si Si5 0.687969 0.366755 0.179097
Si Si6 0.718738 0.802039 0.685151
Si Si7 0.370428 0.090545 0.813935
Si Si8 0.139493 0.489411 0.185688
O O1 0.207839 0.342798 0.293604
O O2 0.318052 0.373751 0.193806
O O3 0.212238 0.462745 0.215943
O O4 0.226028 0.378706 0.000000
O O5 0.629491 0.054932 0.500000
O O6 0.693586 0.095191 0.742718
O O7 0.564821 0.091235 0.744846
O O8 0.630875 0.982043 0.749661
O O9 0.578598 0.537446 0.726924
O O10 0.607660 0.462343 0.500000
O O11 0.662910 0.435665 0.764189
O O12 0.845341 0.734589 0.500000
O O13 0.789635 0.777786 0.745151
O O14 0.745659 0.332769 0.271861
O O15 0.707988 0.369528 0.000000
O O16 0.722352 0.807626 0.500000
O O17 0.690007 0.867209 0.756132
O O18 0.438165 0.123937 0.760059
O O19 0.370459 0.089390 0.000000
O O20 0.130162 0.489284 0.000000
#
# Coordination Sequence:
#
# PCOD9543296 Si02
#       8
#     8   8   8   8   8   8   8   8
#     4   8  15  28  45  64  86 117 156 193 231 278
#     4  10  19  32  51  73  96 127 168 205 237 282
#     4   9  19  35  50  63  82 110 147 194 247 299
#     4   8  16  31  50  69  89 117 156 199 235 270
#     4  10  19  31  49  71  92 116 151 196 246 299
#     4  10  20  35  52  70  95 126 158 195 239 282
#     4  11  22  33  46  70 104 135 162 197 242 287
#     4   9  18  32  47  65  96 134 166 199 239 281
#
# _framework density 17.431559
#
# number of rings (size 3 to 8) (size 9 to 14) (size 15 to 20)
#    0.000    2.625    0.000    2.250    0.000    5.500 
#    0.000    1.875    0.000    0.000    0.000    0.000 
#    0.000    0.500    0.000    5.750    0.000    2.250 
#
# Total GULP energy -356481.856188 kJ/mol
# GULP energy per Si atom -5570.029003 kJ/mol
# Density = 1.739188 g / cm^3
# Si number density = 17.431559 Si / 1000 Ang^3
#
#
#
# Elastic Constant Matrix: (Units=GPa)
#
#
# Indices 1 2 3 4 5 6 
#
# 1 38.1172 47.5594 15.5027 0.0000 0.0000 6.0250
# 2 47.5594 38.1172 15.5027 0.0000 0.0000 -6.0250
# 3 15.5027 15.5027 14.8848 0.0000 0.0000 0.0000
# 4 0.0000 0.0000 0.0000 19.7467 0.0000 0.0000
# 5 0.0000 0.0000 0.0000 0.0000 19.7467 0.0000
# 6 6.0250 -6.0250 0.0000 0.0000 0.0000 23.4324
#
#
#
# Elastic Compliance Matrix: (Units=1/GPa)
#
#
# Indices 1 2 3 4 5 6 
#
# 1 -0.030504 0.049237 -0.019510 0.000000 0.000000 0.020503
# 2 0.049237 -0.030504 -0.019510 0.000000 0.000000 -0.020503
# 3 -0.019510 -0.019510 0.107822 0.000000 0.000000 0.000000
# 4 0.000000 0.000000 0.000000 0.050641 0.000000 0.000000
# 5 0.000000 0.000000 0.000000 0.000000 0.050641 0.000000
# 6 0.020503 -0.020503 0.000000 0.000000 0.000000 0.032132
#
#
# Mechanical properties :
#
#
# Convention : Reuss Voigt Hill
#
# Bulk Modulus (GPa) = 14.87056 27.58321 21.22688
# Shear Modulus (GPa) = 27.44099 13.42211 20.43155
#
# Velocity S-wave (km/s) = 3.97194 2.77788 3.42731
# Velocity P-wave (km/s) = 5.43916 5.11340 5.27879
#
# Compressibility (1/GPa) = 0.06724697
#
# Stress axis : x y z
#
# Youngs Moduli (GPa) = -32.78206 -32.78206 9.27457
#
# Poissons Ratio (x) = 1.61408 0.18094
# Poissons Ratio (y) = 1.61408 0.18094
# Poissons Ratio (z) = -0.63957 -0.63957
#
# Static dielectric constant tensor:
#      x y z
#    x 1.608500 0.000000 0.000000 
#    y 0.000000 1.608500 0.000000 
#    z 0.000000 0.000000 1.598740 
# 
# From -- ./inp_files/1286.got.cif
#   From: 2010.05.17/outbox.cif.g08.bks.cpg/sg83_1_cif.got.tgz:1286.got - 2010.06.03 18:55:12.
