data_PCOD9543853
_publ_section_title
;
Structure prediction by ZEFSAII (Michael W. Deem and Ramdas Pophale) SiO2 
 PCOD9543853
Probable space group: P 4/M
;
_chemical_formula_sum "Si O2"
_cell_formula_units_Z 23
_cell_length_a 8.479633
_cell_length_b 8.479633
_cell_length_c 13.965272
_cell_angle_alpha 90.000000
_cell_angle_beta 90.000000
_cell_angle_gamma 90.000000
_cell_volume 1004.161373
_symmetry_space_group_name_H-M "P 4/M"
_symmetry_group_IT_number 83
_symmetry_cell_setting 'tetragonal'
loop_
_space_group_symop_operation_xyz
x,y,z
-y,x,z
-x,-y,z
y,-x,z
-x,-y,-z
y,-x,-z
x,y,-z
-y,x,-z
loop_
_atom_site_type_symbol
_atom_site_label
_atom_site_fract_x
_atom_site_fract_y
_atom_site_fract_z
Si Si1 0.500000 0.000000 0.159211
Si Si2 0.500000 0.500000 0.500000
Si Si3 0.094667 0.757361 0.707024
Si Si4 0.854005 0.382215 0.500000
Si Si5 0.500000 0.500000 0.000000
Si Si6 0.186852 0.311430 0.000000
Si Si7 0.000000 0.000000 0.000000
O O1 0.394831 0.114933 0.226568
O O2 0.610783 0.105095 0.092474
O O3 0.692981 0.479746 0.500000
O O4 0.128787 0.716655 0.597056
O O5 0.913155 0.805076 0.726197
O O6 0.000000 0.500000 0.500000
O O7 0.371975 0.351906 0.000000
O O8 0.149493 0.125202 0.000000
#
# Coordination Sequence:
#
# PCOD9543853 Si02
#       7
#     4   1   8   4   1   4   1
#     4  11  26  47  72 118 150 209 256 325 390 494
#     4  12  28  44  86 112 152 230 264 336 418 488
#     4  11  25  44  74 108 153 206 260 323 399 478
#     4  12  24  49  70 110 156 200 268 330 393 471
#     4  12  28  56  78 124 148 210 244 348 406 464
#     4  11  28  49  80 108 162 196 266 320 404 472
#     4  12  28  56  84 108 148 234 252 316 412 520
#
# _framework density 22.904684
#
# number of rings (size 3 to 8) (size 9 to 14) (size 15 to 20)
#    0.000    0.696    1.739    5.217    9.739    1.391 
#    0.000    1.739    0.000    0.000    0.000    0.000 
#    0.000    0.000    0.000    0.000    0.000    0.000 
#
# Total GULP energy -128091.691664 kJ/mol
# GULP energy per Si atom -5569.203985 kJ/mol
# Density = 2.285255 g / cm^3
# Si number density = 22.904684 Si / 1000 Ang^3
#
#
#
# Elastic Constant Matrix: (Units=GPa)
#
#
# Indices 1 2 3 4 5 6 
#
# 1 136.0196 30.8855 27.1026 0.0000 0.0000 0.7729
# 2 30.8855 136.0196 27.1026 0.0000 0.0000 -0.7729
# 3 27.1026 27.1026 140.5535 0.0000 0.0000 0.0000
# 4 0.0000 0.0000 0.0000 1.5500 0.0000 0.0000
# 5 0.0000 0.0000 0.0000 0.0000 1.5500 0.0000
# 6 0.7729 -0.7729 0.0000 0.0000 0.0000 34.6700
#
#
#
# Elastic Compliance Matrix: (Units=1/GPa)
#
#
# Indices 1 2 3 4 5 6 
#
# 1 0.007953 -0.001562 -0.001232 0.000000 0.000000 -0.000212
# 2 -0.001562 0.007953 -0.001232 0.000000 0.000000 0.000212
# 3 -0.001232 -0.001232 0.007590 0.000000 0.000000 0.000000
# 4 0.000000 0.000000 0.000000 0.645169 0.000000 0.000000
# 5 0.000000 0.000000 0.000000 0.000000 0.645169 0.000000
# 6 -0.000212 0.000212 0.000000 0.000000 0.000000 0.028853
#
#
# Mechanical properties :
#
#
# Convention : Reuss Voigt Hill
#
# Bulk Modulus (GPa) = 64.75233 64.75270 64.75252
# Shear Modulus (GPa) = 3.68762 29.38746 16.53754
#
# Velocity S-wave (km/s) = 1.27023 3.58583 2.68995
# Velocity P-wave (km/s) = 5.52114 6.74360 6.16276
#
# Compressibility (1/GPa) = 0.01544346
#
# Stress axis : x y z
#
# Youngs Moduli (GPa) = 125.73494 125.73494 131.75150
#
# Poissons Ratio (x) = 0.19634 0.16238
# Poissons Ratio (y) = 0.19634 0.16238
# Poissons Ratio (z) = 0.15497 0.15497
#
# Static dielectric constant tensor:
#      x y z
#    x 1.792390 0.000000 0.000000 
#    y 0.000000 1.792390 0.000000 
#    z 0.000000 0.000000 1.927430 
# 
# From -- ./inp_files/2173.got.cif
#   From: 2010.05.17/outbox.cif.g08.bks.cpg/sg83_2_cif.got.tgz:2173.got - 2010.06.03 18:55:12.
