data_PCOD9543429
_publ_section_title
;
Structure prediction by ZEFSAII (Michael W. Deem and Ramdas Pophale) SiO2 
 PCOD9543429
Probable space group: P 4/M
;
_chemical_formula_sum "Si O2"
_cell_formula_units_Z 40
_cell_length_a 16.125589
_cell_length_b 16.125589
_cell_length_c 8.944270
_cell_angle_alpha 90.000000
_cell_angle_beta 90.000000
_cell_angle_gamma 90.000000
_cell_volume 2325.819856
_symmetry_space_group_name_H-M "P 4/M"
_symmetry_group_IT_number 83
_symmetry_cell_setting 'tetragonal'
loop_
_space_group_symop_operation_xyz
x,y,z
-y,x,z
-x,-y,z
y,-x,z
-x,-y,-z
y,-x,-z
x,y,-z
-y,x,-z
loop_
_atom_site_type_symbol
_atom_site_label
_atom_site_fract_x
_atom_site_fract_y
_atom_site_fract_z
Si Si1 0.417953 0.049315 0.179437
Si Si2 0.381331 0.565294 0.179937
Si Si3 0.782630 0.360288 0.677875
Si Si4 0.154065 0.823090 0.679119
Si Si5 0.015410 0.235498 0.179230
O O1 0.408975 0.138867 0.254532
O O2 0.500000 0.000000 0.226917
O O3 0.333062 0.999536 0.212884
O O4 0.421616 0.060403 0.000000
O O5 0.391056 0.468313 0.220851
O O6 0.302488 0.607089 0.253961
O O7 0.373921 0.569347 0.000000
O O8 0.782094 0.369828 0.500000
O O9 0.798262 0.263129 0.712079
O O10 0.147137 0.831748 0.500000
O O11 0.201331 0.900728 0.749276
O O12 0.063257 0.812388 0.751318
O O13 0.016563 0.225488 0.000000
#
# Coordination Sequence:
#
# PCOD9543429 Si02
#       5
#     8   8   8   8   8
#     4   9  19  36  56  78 105 138 176 217 260 306
#     4   9  19  36  56  77 103 138 179 220 261 306
#     4  10  21  35  53  79 109 140 173 212 260 313
#     4  10  21  37  54  75 107 141 171 208 260 315
#     4  10  20  35  56  80 104 133 175 220 257 301
#
# _framework density 17.198236000000001
#
# number of rings (size 3 to 8) (size 9 to 14) (size 15 to 20)
#    0.000    2.400    0.000    2.400    0.000    6.400 
#    0.000    9.000    0.000    0.000    0.000    0.000 
#    0.000    0.000    0.000    0.000    0.000    0.000 
#
# Total GULP energy -223249.567792 kJ/mol
# GULP energy per Si atom -5581.239195 kJ/mol
# Density = 1.715909 g / cm^3
# Si number density = 17.198236 Si / 1000 Ang^3
#
#
#
# Elastic Constant Matrix: (Units=GPa)
#
#
# Indices 1 2 3 4 5 6 
#
# 1 142.9851 103.7485 65.1197 0.0000 0.0000 -18.7741
# 2 103.7485 142.9851 65.1197 0.0000 0.0000 18.7741
# 3 65.1197 65.1197 54.9690 0.0000 0.0000 0.0000
# 4 0.0000 0.0000 0.0000 26.6752 0.0000 0.0000
# 5 0.0000 0.0000 0.0000 0.0000 26.6752 0.0000
# 6 -18.7741 18.7741 0.0000 0.0000 0.0000 30.4786
#
#
#
# Elastic Compliance Matrix: (Units=1/GPa)
#
#
# Indices 1 2 3 4 5 6 
#
# 1 0.036449 -0.025632 -0.012815 0.000000 0.000000 0.038241
# 2 -0.025632 0.036449 -0.012815 0.000000 0.000000 -0.038241
# 3 -0.012815 -0.012815 0.048555 0.000000 0.000000 0.000000
# 4 0.000000 0.000000 0.000000 0.037488 0.000000 0.000000
# 5 0.000000 0.000000 0.000000 0.000000 0.037488 0.000000
# 6 0.038241 -0.038241 0.000000 0.000000 0.000000 0.079921
#
#
# Mechanical properties :
#
#
# Convention : Reuss Voigt Hill
#
# Bulk Modulus (GPa) = 52.82675 89.87941 71.35308
# Shear Modulus (GPa) = 12.98081 23.89590 18.43835
#
# Velocity S-wave (km/s) = 2.75030 3.73156 3.27786
# Velocity P-wave (km/s) = 6.39285 8.42261 7.47693
#
# Compressibility (1/GPa) = 0.01892980
#
# Stress axis : x y z
#
# Youngs Moduli (GPa) = 27.43525 27.43525 20.59534
#
# Poissons Ratio (x) = 0.70322 0.26393
# Poissons Ratio (y) = 0.70322 0.26393
# Poissons Ratio (z) = 0.35158 0.35158
#
# Static dielectric constant tensor:
#      x y z
#    x 1.558850 0.000000 0.000000 
#    y 0.000000 1.558850 0.000000 
#    z 0.000000 0.000000 1.570190 
# 
# From -- ./inp_files/620.got.cif
#   From: 2010.05.17/outbox.cif.g08.bks.cpg/sg83_1_cif.got.tgz:620.got - 2010.06.03 18:55:12.
