data_PCOD9543232
_publ_section_title
;
Structure prediction by ZEFSAII (Michael W. Deem and Ramdas Pophale) SiO2 
 PCOD9543232
Probable space group: P 4/M
;
_chemical_formula_sum "Si O2"
_cell_formula_units_Z 64
_cell_length_a 20.853700
_cell_length_b 20.853700
_cell_length_c 7.262617
_cell_angle_alpha 90.000000
_cell_angle_beta 90.000000
_cell_angle_gamma 90.000000
_cell_volume 3158.343667
_symmetry_space_group_name_H-M "P 4/M"
_symmetry_group_IT_number 83
_symmetry_cell_setting 'tetragonal'
loop_
_space_group_symop_operation_xyz
x,y,z
-y,x,z
-x,-y,z
y,-x,z
-x,-y,-z
y,-x,-z
x,y,-z
-y,x,-z
loop_
_atom_site_type_symbol
_atom_site_label
_atom_site_fract_x
_atom_site_fract_y
_atom_site_fract_z
Si Si1 0.412259 0.287497 0.211965
Si Si2 0.097045 0.505549 0.213473
Si Si3 0.678630 0.199153 0.225130
Si Si4 0.651152 0.920120 0.224245
Si Si5 0.433475 0.422722 0.278424
Si Si6 0.455783 0.756343 0.212682
Si Si7 0.209210 0.709740 0.224795
Si Si8 0.059742 0.368884 0.224337
O O1 0.393943 0.361931 0.215658
O O2 0.483284 0.280441 0.296356
O O3 0.355427 0.244786 0.287088
O O4 0.419328 0.266415 0.000000
O O5 0.094009 0.577751 0.286552
O O6 0.170208 0.480846 0.217235
O O7 0.059082 0.443610 0.287446
O O8 0.077399 0.511739 0.000000
O O9 0.616228 0.239966 0.288302
O O10 0.745419 0.231396 0.282237
O O11 0.665537 0.125594 0.281477
O O12 0.676744 0.199712 0.000000
O O13 0.700090 0.864419 0.282458
O O14 0.664375 0.993408 0.277814
O O15 0.650738 0.917588 0.000000
O O16 0.507004 0.413806 0.215840
O O17 0.432297 0.423672 0.500000
O O18 0.448956 0.735497 0.000000
O O19 0.210225 0.710914 0.000000
O O20 0.061793 0.371348 0.000000
#
# Coordination Sequence:
#
# PCOD9543232 Si02
#       8
#     8   8   8   8   8   8   8   8
#     4  10  18  26  41  63  78  93 120 157 196 239
#     4   8  11  17  26  39  60  86 110 135 167 206
#     4   8  14  22  29  40  65  97 118 141 181 225
#     4   9  13  18  27  41  62  90 121 146 172 217
#     4   9  20  37  48  52  66  96 131 167 206 238
#     4   8  13  21  31  46  71  92 109 135 173 220
#     4   9  16  23  31  48  76  98 113 143 193 232
#     4   8  13  18  27  39  55  89 129 147 161 213
#
# _framework density 20.263786
#
# number of rings (size 3 to 8) (size 9 to 14) (size 15 to 20)
#    0.000    3.375    1.250    2.250    1.750    2.000 
#    0.000    0.625    0.000    0.000    0.000    0.000 
#    0.000    0.500    0.000   17.125    0.000   11.250 
#
# Total GULP energy -356897.561115 kJ/mol
# GULP energy per Si atom -5576.524392 kJ/mol
# Density = 2.021766 g / cm^3
# Si number density = 20.263786 Si / 1000 Ang^3
#
#
#
# Elastic Constant Matrix: (Units=GPa)
#
#
# Indices 1 2 3 4 5 6 
#
# 1 68.5141 113.2137 1.6358 0.0000 0.0000 15.6226
# 2 113.2137 68.5141 1.6358 0.0000 0.0000 -15.6226
# 3 1.6358 1.6358 88.1649 0.0000 0.0000 0.0000
# 4 0.0000 0.0000 0.0000 -15.1313 0.0000 0.0000
# 5 0.0000 0.0000 0.0000 0.0000 -15.1313 0.0000
# 6 15.6226 -15.6226 0.0000 0.0000 0.0000 26.0828
#
#
#
# Elastic Compliance Matrix: (Units=1/GPa)
#
#
# Indices 1 2 3 4 5 6 
#
# 1 -0.005132 0.010637 -0.000102 0.000000 0.000000 0.009445
# 2 0.010637 -0.005132 -0.000102 0.000000 0.000000 -0.009445
# 3 -0.000102 -0.000102 0.011346 0.000000 0.000000 0.000000
# 4 0.000000 0.000000 0.000000 -0.066088 0.000000 0.000000
# 5 0.000000 0.000000 0.000000 0.000000 -0.066088 0.000000
# 6 0.009445 -0.009445 0.000000 0.000000 0.000000 0.027025
#
#
# Mechanical properties :
#
#
# Convention : Reuss Voigt Hill
#
# Bulk Modulus (GPa) = 45.56478 50.90711 48.23594
# Shear Modulus (GPa) = -42.50992 6.41122 -18.04935
#
# Velocity S-wave (km/s) = -4.58517 1.78066 -2.98773
# Velocity P-wave (km/s) = 2.34459 5.42258 3.45740
#
# Compressibility (1/GPa) = 0.02194678
#
# Stress axis : x y z
#
# Youngs Moduli (GPa) = -194.84162 -194.84162 88.13550
#
# Poissons Ratio (x) = 2.07252 0.00900
# Poissons Ratio (y) = 2.07252 0.00900
# Poissons Ratio (z) = -0.01990 -0.01990
#
# Static dielectric constant tensor:
#      x y z
#    x 1.735400 0.000000 0.000000 
#    y 0.000000 1.735400 0.000000 
#    z 0.000000 0.000000 1.781780 
# 
# From -- ./inp_files/1261.got.cif
#   From: 2010.05.17/outbox.cif.g08.bks.cpg/sg83_1_cif.got.tgz:1261.got - 2010.06.03 18:55:12.
