data_PCOD9543969
_publ_section_title
;
Structure prediction by ZEFSAII (Michael W. Deem and Ramdas Pophale) SiO2 
 PCOD9543969
Probable space group: P 42/M
;
_chemical_formula_sum "Si O2"
_cell_formula_units_Z 32
_cell_length_a 9.538895
_cell_length_b 9.538895
_cell_length_c 18.832200
_cell_angle_alpha 90.000000
_cell_angle_beta 90.000000
_cell_angle_gamma 90.000000
_cell_volume 1713.551630
_symmetry_space_group_name_H-M "P 42/M"
_symmetry_group_IT_number 84
_symmetry_cell_setting 'tetragonal'
loop_
_space_group_symop_operation_xyz
x,y,z
-y,x,1/2+z
-x,-y,z
y,-x,1/2+z
-x,-y,-z
y,-x,1/2-z
x,y,-z
-y,x,1/2-z
loop_
_atom_site_type_symbol
_atom_site_label
_atom_site_fract_x
_atom_site_fract_y
_atom_site_fract_z
Si Si1 0.584668 0.854935 0.918528
Si Si2 0.423869 0.295102 0.223105
Si Si3 0.111360 0.814571 0.222181
Si Si4 0.839614 0.046495 0.078042
O O1 0.548418 0.741740 0.859072
O O2 0.500000 0.000000 0.907206
O O3 0.743983 0.909736 0.910344
O O4 0.562519 0.809542 0.000000
O O5 0.328126 0.432371 0.235994
O O6 0.334997 0.165114 0.252807
O O7 0.169358 0.848605 0.143809
O O8 0.943455 0.830269 0.229468
O O9 0.799481 0.103696 0.000000
O O10 0.000000 0.000000 0.075996
#
# Coordination Sequence:
#
# PCOD9543969 Si02
#       4
#     8   8   8   8
#     4  10  20  37  61  84 108 150 199 238 280 338
#     4  11  24  38  54  84 120 150 186 234 291 341
#     4  11  19  34  57  85 111 146 197 234 283 343
#     4  10  18  31  53  84 114 139 182 241 283 327
#
# _framework density 18.674662999999999
#
# number of rings (size 3 to 8) (size 9 to 14) (size 15 to 20)
#    0.000    1.500    5.000    1.500    0.000    0.000 
#    0.000    3.750    0.000    0.000    0.000    8.750 
#    0.000    0.000    0.000    0.000    0.000    0.000 
#
# Total GULP energy -178496.184518 kJ/mol
# GULP energy per Si atom -5578.005766 kJ/mol
# Density = 1.863216 g / cm^3
# Si number density = 18.674663 Si / 1000 Ang^3
#
#
#
# Elastic Constant Matrix: (Units=GPa)
#
#
# Indices 1 2 3 4 5 6 
#
# 1 55.1497 17.3005 26.3732 0.0000 0.0000 9.8401
# 2 17.3005 55.1497 26.3732 0.0000 0.0000 -9.8401
# 3 26.3732 26.3732 174.3486 0.0000 0.0000 0.0000
# 4 0.0000 0.0000 0.0000 21.5320 0.0000 0.0000
# 5 0.0000 0.0000 0.0000 0.0000 21.5320 0.0000
# 6 9.8401 -9.8401 0.0000 0.0000 0.0000 30.3496
#
#
#
# Elastic Compliance Matrix: (Units=1/GPa)
#
#
# Indices 1 2 3 4 5 6 
#
# 1 0.023644 -0.008134 -0.002346 0.000000 0.000000 -0.010303
# 2 -0.008134 0.023644 -0.002346 0.000000 0.000000 0.010303
# 3 -0.002346 -0.002346 0.006445 0.000000 0.000000 0.000000
# 4 0.000000 0.000000 0.000000 0.046443 0.000000 0.000000
# 5 0.000000 0.000000 0.000000 0.000000 0.046443 0.000000
# 6 -0.010303 0.010303 0.000000 0.000000 0.000000 0.039630
#
#
# Mechanical properties :
#
#
# Convention : Reuss Voigt Hill
#
# Bulk Modulus (GPa) = 35.61016 47.19355 41.40185
# Shear Modulus (GPa) = 22.59758 28.98945 25.79351
#
# Velocity S-wave (km/s) = 3.48237 3.94425 3.72049
# Velocity P-wave (km/s) = 5.93964 6.78742 6.37763
#
# Compressibility (1/GPa) = 0.02808187
#
# Stress axis : x y z
#
# Youngs Moduli (GPa) = 42.29344 42.29344 155.14805
#
# Poissons Ratio (x) = 0.34400 0.36402
# Poissons Ratio (y) = 0.34400 0.36402
# Poissons Ratio (z) = 0.09923 0.09923
#
# Static dielectric constant tensor:
#      x y z
#    x 1.654940 0.000000 0.000000 
#    y 0.000000 1.654940 0.000000 
#    z 0.000000 0.000000 1.720710 
# 
# From -- ./inp_files/4100.got.cif
#   From: 2010.05.17/outbox.cif.g08.bks.cpg/sg84_3_cif.got.tgz:4100.got - 2010.06.03 18:57:40.
