data_PCOD9543772
_publ_section_title
;
Structure prediction by ZEFSAII (Michael W. Deem and Ramdas Pophale) SiO2 
 PCOD9543772
Probable space group: P 4/M
;
_chemical_formula_sum "Si O2"
_cell_formula_units_Z 40
_cell_length_a 8.145143
_cell_length_b 8.145143
_cell_length_c 27.097183
_cell_angle_alpha 90.000000
_cell_angle_beta 90.000000
_cell_angle_gamma 90.000000
_cell_volume 1797.718017
_symmetry_space_group_name_H-M "P 4/M"
_symmetry_group_IT_number 83
_symmetry_cell_setting 'tetragonal'
loop_
_space_group_symop_operation_xyz
x,y,z
-y,x,z
-x,-y,z
y,-x,z
-x,-y,-z
y,-x,-z
x,y,-z
-y,x,-z
loop_
_atom_site_type_symbol
_atom_site_label
_atom_site_fract_x
_atom_site_fract_y
_atom_site_fract_z
Si Si1 0.763153 0.583709 0.094949
Si Si2 0.262637 0.908256 0.809878
Si Si3 0.086676 0.262785 0.700669
Si Si4 0.236197 0.413855 0.606549
Si Si5 0.763542 0.591454 0.500000
Si Si6 0.082739 0.263972 0.000000
O O1 0.601240 0.698531 0.092614
O O2 0.854605 0.621726 0.145925
O O3 0.873358 0.634565 0.048682
O O4 0.335963 0.883745 0.755126
O O5 0.095773 0.799756 0.813665
O O6 0.131338 0.371774 0.654139
O O7 0.900752 0.198699 0.698201
O O8 0.400179 0.301619 0.608209
O O9 0.153705 0.380269 0.553027
O O10 0.596560 0.699280 0.500000
O O11 0.897989 0.197920 0.000000
#
# Coordination Sequence:
#
# PCOD9543772 Si02
#       6
#     8   8   8   8   4   4
#     4  11  24  39  56  83 116 143 171 213 261 305
#     4   9  19  37  58  77 100 136 180 217 252 304
#     4   9  19  35  52  72 102 137 171 210 256 306
#     4   9  17  30  50  74  98 127 167 213 258 307
#     4   7  12  26  46  67  94 128 164 205 254 305
#     4  11  24  41  62  86 110 141 182 219 252 300
#
# _framework density 22.250430000000001
#
# number of rings (size 3 to 8) (size 9 to 14) (size 15 to 20)
#    0.000    2.600    0.000    4.200    0.000    8.800 
#    0.000    7.000    0.000    4.800    0.000    0.000 
#    0.000    0.000    0.000    0.000    0.000    0.000 
#
# Total GULP energy -223791.767853 kJ/mol
# GULP energy per Si atom -5594.794196 kJ/mol
# Density = 2.219979 g / cm^3
# Si number density = 22.250430 Si / 1000 Ang^3
#
#
#
# Elastic Constant Matrix: (Units=GPa)
#
#
# Indices 1 2 3 4 5 6 
#
# 1 65.7417 44.1336 65.8748 0.0000 0.0000 -1.0558
# 2 44.1336 65.7417 65.8748 0.0000 0.0000 1.0558
# 3 65.8748 65.8748 240.9206 0.0000 0.0000 0.0000
# 4 0.0000 0.0000 0.0000 148.1810 0.0000 0.0000
# 5 0.0000 0.0000 0.0000 0.0000 148.1810 0.0000
# 6 -1.0558 1.0558 0.0000 0.0000 0.0000 39.5825
#
#
#
# Elastic Compliance Matrix: (Units=1/GPa)
#
#
# Indices 1 2 3 4 5 6 
#
# 1 0.029970 -0.016430 -0.003702 0.000000 0.000000 0.001238
# 2 -0.016430 0.029970 -0.003702 0.000000 0.000000 -0.001238
# 3 -0.003702 -0.003702 0.006175 0.000000 0.000000 0.000000
# 4 0.000000 0.000000 0.000000 0.006749 0.000000 0.000000
# 5 0.000000 0.000000 0.000000 0.000000 0.006749 0.000000
# 6 0.001238 -0.001238 0.000000 0.000000 0.000000 0.025330
#
#
# Mechanical properties :
#
#
# Convention : Reuss Voigt Hill
#
# Bulk Modulus (GPa) = 54.20876 80.46337 67.33606
# Shear Modulus (GPa) = 31.49395 80.29031 55.89213
#
# Velocity S-wave (km/s) = 3.76630 6.01358 5.01738
# Velocity P-wave (km/s) = 6.58250 9.19014 7.99337
#
# Compressibility (1/GPa) = 0.01844720
#
# Stress axis : x y z
#
# Youngs Moduli (GPa) = 33.36637 33.36637 161.93143
#
# Poissons Ratio (x) = 0.54819 0.59954
# Poissons Ratio (y) = 0.54819 0.59954
# Poissons Ratio (z) = 0.12354 0.12354
#
# Static dielectric constant tensor:
#      x y z
#    x 1.804150 0.000000 0.000000 
#    y 0.000000 1.804150 0.000000 
#    z 0.000000 0.000000 1.810340 
# 
# From -- ./inp_files/3266.got.cif
#   From: 2010.05.17/outbox.cif.g08.bks.cpg/sg83_2_cif.got.tgz:3266.got - 2010.06.03 18:55:12.
