data_PCOD9543612
_publ_section_title
;
Structure prediction by ZEFSAII (Michael W. Deem and Ramdas Pophale) SiO2 
 PCOD9543612
Probable space group: P 4/M
;
_chemical_formula_sum "Si O2"
_cell_formula_units_Z 60
_cell_length_a 11.943316
_cell_length_b 11.943316
_cell_length_c 22.578505
_cell_angle_alpha 90.000000
_cell_angle_beta 90.000000
_cell_angle_gamma 90.000000
_cell_volume 3220.661107
_symmetry_space_group_name_H-M "P 4/M"
_symmetry_group_IT_number 83
_symmetry_cell_setting 'tetragonal'
loop_
_space_group_symop_operation_xyz
x,y,z
-y,x,z
-x,-y,z
y,-x,z
-x,-y,-z
y,-x,-z
x,y,-z
-y,x,-z
loop_
_atom_site_type_symbol
_atom_site_label
_atom_site_fract_x
_atom_site_fract_y
_atom_site_fract_z
Si Si1 0.224467 0.838487 0.185091
Si Si2 0.474322 0.313630 0.067762
Si Si3 0.680097 0.438474 0.630666
Si Si4 0.483413 0.877773 0.841611
Si Si5 0.678948 0.438725 0.500000
Si Si6 0.821860 0.003467 0.286205
Si Si7 0.148189 0.638971 0.729972
Si Si8 0.115716 0.850413 0.063993
O O1 0.353314 0.855773 0.169963
O O2 0.180615 0.954415 0.216476
O O3 0.205636 0.740889 0.233110
O O4 0.163613 0.803921 0.124616
O O5 0.592318 0.379074 0.075346
O O6 0.468749 0.216756 0.115454
O O7 0.469976 0.272621 0.000000
O O8 0.636658 0.566934 0.636026
O O9 0.731085 0.420828 0.564619
O O10 0.768636 0.406160 0.680402
O O11 0.546454 0.876574 0.778946
O O12 0.500000 0.000000 0.869064
O O13 0.635718 0.566475 0.500000
O O14 0.896151 0.106849 0.308616
O O15 0.694697 0.965773 0.296283
O O16 0.981316 0.848925 0.064979
O O17 0.153329 0.803136 0.000000
#
# Coordination Sequence:
#
# PCOD9543612 Si02
#       8
#     8   8   8   8   4   8   8   8
#     4  11  21  35  54  72 104 138 175 216 270 328
#     4   9  20  42  66  78  91 132 192 236 269 331
#     4   9  17  31  53  83 118 151 184 220 260 313
#     4  12  24  36  49  79 114 140 165 218 282 339
#     4   7  12  26  50  80 113 148 183 221 262 303
#     4   9  18  33  52  70  93 132 182 223 260 314
#     4  11  21  34  51  78 107 146 178 215 262 321
#     4   9  18  33  54  75  90 115 165 223 272 320
#
# _framework density 18.629716999999999
#
# number of rings (size 3 to 8) (size 9 to 14) (size 15 to 20)
#    0.000    2.200    1.333    4.800    0.000    2.933 
#    0.000    2.000    0.000    0.000    0.000    4.200 
#    0.000    4.267    0.000    0.000    0.000    0.000 
#
# Total GULP energy -334171.977454 kJ/mol
# GULP energy per Si atom -5569.532958 kJ/mol
# Density = 1.858732 g / cm^3
# Si number density = 18.629717 Si / 1000 Ang^3
#
#
#
# Elastic Constant Matrix: (Units=GPa)
#
#
# Indices 1 2 3 4 5 6 
#
# 1 51.5088 6.4881 32.2857 0.0000 0.0000 -3.0391
# 2 6.4881 51.5088 32.2857 0.0000 0.0000 3.0391
# 3 32.2857 32.2857 91.5131 0.0000 0.0000 0.0000
# 4 0.0000 0.0000 0.0000 4.0475 0.0000 0.0000
# 5 0.0000 0.0000 0.0000 0.0000 4.0475 0.0000
# 6 -3.0391 3.0391 0.0000 0.0000 0.0000 21.3008
#
#
#
# Elastic Compliance Matrix: (Units=1/GPa)
#
#
# Indices 1 2 3 4 5 6 
#
# 1 0.025522 0.002874 -0.010018 0.000000 0.000000 0.003231
# 2 0.002874 0.025522 -0.010018 0.000000 0.000000 -0.003231
# 3 -0.010018 -0.010018 0.017996 0.000000 0.000000 0.000000
# 4 0.000000 0.000000 0.000000 0.247064 0.000000 0.000000
# 5 0.000000 0.000000 0.000000 0.000000 0.247064 0.000000
# 6 0.003231 -0.003231 0.000000 0.000000 0.000000 0.047869
#
#
# Mechanical properties :
#
#
# Convention : Reuss Voigt Hill
#
# Bulk Modulus (GPa) = 28.80528 37.40553 33.10540
# Shear Modulus (GPa) = 7.61111 14.11058 10.86085
#
# Velocity S-wave (km/s) = 2.02345 2.75512 2.41713
# Velocity P-wave (km/s) = 4.57763 5.49936 5.05953
#
# Compressibility (1/GPa) = 0.03471586
#
# Stress axis : x y z
#
# Youngs Moduli (GPa) = 39.18166 39.18166 55.56742
#
# Poissons Ratio (x) = -0.11260 0.55668
# Poissons Ratio (y) = -0.11260 0.55668
# Poissons Ratio (z) = 0.39253 0.39253
#
# Static dielectric constant tensor:
#      x y z
#    x 1.680720 0.000000 0.000000 
#    y 0.000000 1.680720 0.000000 
#    z 0.000000 0.000000 1.647830 
# 
# From -- ./inp_files/3057.got.cif
#   From: 2010.05.17/outbox.cif.g08.bks.cpg/sg83_2_cif.got.tgz:3057.got - 2010.06.03 18:55:12.
