data_PCOD9543500
_publ_section_title
;
Structure prediction by ZEFSAII (Michael W. Deem and Ramdas Pophale) SiO2 
 PCOD9543500
Probable space group: P 4/M
;
_chemical_formula_sum "Si O2"
_cell_formula_units_Z 56
_cell_length_a 14.263685
_cell_length_b 14.263685
_cell_length_c 11.796926
_cell_angle_alpha 90.000000
_cell_angle_beta 90.000000
_cell_angle_gamma 90.000000
_cell_volume 2400.116562
_symmetry_space_group_name_H-M "P 4/M"
_symmetry_group_IT_number 83
_symmetry_cell_setting 'tetragonal'
loop_
_space_group_symop_operation_xyz
x,y,z
-y,x,z
-x,-y,z
y,-x,z
-x,-y,-z
y,-x,-z
x,y,-z
-y,x,-z
loop_
_atom_site_type_symbol
_atom_site_label
_atom_site_fract_x
_atom_site_fract_y
_atom_site_fract_z
Si Si1 0.379809 0.403242 0.670239
Si Si2 0.852435 0.016419 0.153584
Si Si3 0.055341 0.229103 0.374833
Si Si4 0.721370 0.784843 0.625385
Si Si5 0.356582 0.954715 0.817158
Si Si6 0.435764 0.749347 0.872354
Si Si7 0.632881 0.841958 0.869843
O O1 0.486253 0.373939 0.641286
O O2 0.313780 0.322746 0.621655
O O3 0.339689 0.407810 0.798337
O O4 0.844666 0.010635 0.289715
O O5 0.745805 0.036040 0.123790
O O6 0.920177 0.100112 0.118797
O O7 0.019230 0.221532 0.500000
O O8 0.166617 0.214290 0.372306
O O9 0.037024 0.329727 0.315856
O O10 0.691206 0.824740 0.500000
O O11 0.689390 0.824549 0.750594
O O12 0.393042 0.850455 0.836967
O O13 0.404995 0.050484 0.857556
O O14 0.546331 0.770606 0.865327
O O15 0.406885 0.731866 0.000000
O O16 0.673588 0.834247 0.000000
#
# Coordination Sequence:
#
# PCOD9543500 Si02
#       7
#     8   8   8   8   8   8   8
#     4  11  23  43  68  99 136 178 231 283 349 418
#     4   9  18  34  58  89 129 169 217 268 331 396
#     4   9  20  36  60  93 132 172 219 273 328 395
#     4  11  23  44  71 103 140 183 230 282 342 413
#     4  10  21  38  64  93 132 175 224 278 337 404
#     4  11  23  42  68  95 132 177 229 285 340 410
#     4  11  24  44  69 101 134 176 228 282 343 406
#
# _framework density 23.3322
#
# number of rings (size 3 to 8) (size 9 to 14) (size 15 to 20)
#    0.857    0.857    2.857    1.714    0.000    4.000 
#    0.000    2.857    0.000    1.714    0.000    5.000 
#    0.000    0.000    0.000    0.000    0.000    0.000 
#
# Total GULP energy -311927.557957 kJ/mol
# GULP energy per Si atom -5570.134964 kJ/mol
# Density = 2.327909 g / cm^3
# Si number density = 23.332200 Si / 1000 Ang^3
#
#
#
# Elastic Constant Matrix: (Units=GPa)
#
#
# Indices 1 2 3 4 5 6 
#
# 1 93.4795 21.5609 17.0214 0.0000 0.0000 -7.7338
# 2 21.5609 93.4795 17.0214 0.0000 0.0000 7.7338
# 3 17.0214 17.0214 215.5024 0.0000 0.0000 0.0000
# 4 0.0000 0.0000 0.0000 11.7834 0.0000 0.0000
# 5 0.0000 0.0000 0.0000 0.0000 11.7834 0.0000
# 6 -7.7338 7.7338 0.0000 0.0000 0.0000 35.4276
#
#
#
# Elastic Compliance Matrix: (Units=1/GPa)
#
#
# Indices 1 2 3 4 5 6 
#
# 1 0.011745 -0.002844 -0.000703 0.000000 0.000000 0.003185
# 2 -0.002844 0.011745 -0.000703 0.000000 0.000000 -0.003185
# 3 -0.000703 -0.000703 0.004751 0.000000 0.000000 0.000000
# 4 0.000000 0.000000 0.000000 0.084865 0.000000 0.000000
# 5 0.000000 0.000000 0.000000 0.000000 0.084865 0.000000
# 6 0.003185 -0.003185 0.000000 0.000000 0.000000 0.029617
#
#
# Mechanical properties :
#
#
# Convention : Reuss Voigt Hill
#
# Bulk Modulus (GPa) = 50.65705 57.07431 53.86568
# Shear Modulus (GPa) = 20.60413 34.92273 27.76343
#
# Velocity S-wave (km/s) = 2.97488 3.87300 3.45326
# Velocity P-wave (km/s) = 5.79295 6.67195 6.24792
#
# Compressibility (1/GPa) = 0.01974059
#
# Stress axis : x y z
#
# Youngs Moduli (GPa) = 85.14183 85.14183 210.46541
#
# Poissons Ratio (x) = 0.24218 0.14796
# Poissons Ratio (y) = 0.24218 0.14796
# Poissons Ratio (z) = 0.05986 0.05986
#
# Static dielectric constant tensor:
#      x y z
#    x 1.868180 0.000000 0.000000 
#    y 0.000000 1.868180 0.000000 
#    z 0.000000 0.000000 1.972200 
# 
# From -- ./inp_files/1944.got.cif
#   From: 2010.05.17/outbox.cif.g08.bks.cpg/sg83_1_cif.got.tgz:1944.got - 2010.06.03 18:55:12.
