data_PCOD9543553
_publ_section_title
;
Structure prediction by ZEFSAII (Michael W. Deem and Ramdas Pophale) SiO2 
 PCOD9543553
Probable space group: P 4/M
;
_chemical_formula_sum "Si O2"
_cell_formula_units_Z 40
_cell_length_a 8.183937
_cell_length_b 8.183937
_cell_length_c 27.872318
_cell_angle_alpha 90.000000
_cell_angle_beta 90.000000
_cell_angle_gamma 90.000000
_cell_volume 1866.799360
_symmetry_space_group_name_H-M "P 4/M"
_symmetry_group_IT_number 83
_symmetry_cell_setting 'tetragonal'
loop_
_space_group_symop_operation_xyz
x,y,z
-y,x,z
-x,-y,z
y,-x,z
-x,-y,-z
y,-x,-z
x,y,-z
-y,x,-z
loop_
_atom_site_type_symbol
_atom_site_label
_atom_site_fract_x
_atom_site_fract_y
_atom_site_fract_z
Si Si1 0.260574 0.908688 0.658019
Si Si2 0.737701 0.086452 0.946498
Si Si3 0.738871 0.088992 0.765988
Si Si4 0.577296 0.237197 0.143734
Si Si5 0.000000 0.500000 0.417995
Si Si6 0.079204 0.736044 0.500000
O O1 0.326217 0.886051 0.712021
O O2 0.097012 0.801106 0.653294
O O3 0.393659 0.885739 0.617052
O O4 0.620889 0.136044 0.903595
O O5 0.901282 0.197491 0.942738
O O6 0.668129 0.111545 0.000000
O O7 0.619614 0.139370 0.808214
O O8 0.903224 0.198466 0.770297
O O9 0.695460 0.395023 0.143389
O O10 0.905303 0.376437 0.453188
O O11 0.893031 0.804994 0.500000
#
# Coordination Sequence:
#
# PCOD9543553 Si02
#       6
#     8   8   8   8   4   4
#     4   9  19  36  58  85 114 145 187 236 283 336
#     4   9  19  37  60  83 105 134 181 238 287 335
#     4   9  19  36  58  82 107 140 186 235 279 331
#     4  11  24  37  50  76 115 152 184 224 279 341
#     4  11  20  32  62  92 112 146 193 238 284 326
#     4  10  22  40  60  84 118 158 200 240 274 322
#
# _framework density 21.427046000000001
#
# number of rings (size 3 to 8) (size 9 to 14) (size 15 to 20)
#    0.000    2.300    0.000    4.200    0.000   10.400 
#    0.000    3.000    0.000   24.600    0.000    0.000 
#    0.000    0.000    0.000    0.000    0.000    0.000 
#
# Total GULP energy -223768.909491 kJ/mol
# GULP energy per Si atom -5594.222737 kJ/mol
# Density = 2.137828 g / cm^3
# Si number density = 21.427046 Si / 1000 Ang^3
#
#
#
# Elastic Constant Matrix: (Units=GPa)
#
#
# Indices 1 2 3 4 5 6 
#
# 1 75.4610 37.3287 69.7984 0.0000 0.0000 2.7302
# 2 37.3287 75.4610 69.7984 0.0000 0.0000 -2.7302
# 3 69.7984 69.7984 205.1981 0.0000 0.0000 0.0000
# 4 0.0000 0.0000 0.0000 160.6048 0.0000 0.0000
# 5 0.0000 0.0000 0.0000 0.0000 160.6048 0.0000
# 6 2.7302 -2.7302 0.0000 0.0000 0.0000 29.7682
#
#
#
# Elastic Compliance Matrix: (Units=1/GPa)
#
#
# Indices 1 2 3 4 5 6 
#
# 1 0.020943 -0.005630 -0.005209 0.000000 0.000000 -0.002437
# 2 -0.005630 0.020943 -0.005209 0.000000 0.000000 0.002437
# 3 -0.005209 -0.005209 0.008417 0.000000 0.000000 0.000000
# 4 0.000000 0.000000 0.000000 0.006226 0.000000 0.000000
# 5 0.000000 0.000000 0.000000 0.000000 0.006226 0.000000
# 6 -0.002437 0.002437 0.000000 0.000000 0.000000 0.034040
#
#
# Mechanical properties :
#
#
# Convention : Reuss Voigt Hill
#
# Bulk Modulus (GPa) = 54.92221 78.88568 66.90394
# Shear Modulus (GPa) = 37.04798 82.14187 59.59492
#
# Velocity S-wave (km/s) = 4.16267 6.19829 5.27952
# Velocity P-wave (km/s) = 6.98510 9.38728 8.27383
#
# Compressibility (1/GPa) = 0.01820757
#
# Stress axis : x y z
#
# Youngs Moduli (GPa) = 47.74857 47.74857 118.81040
#
# Poissons Ratio (x) = 0.26884 0.61884
# Poissons Ratio (y) = 0.26884 0.61884
# Poissons Ratio (z) = 0.24870 0.24870
#
# Static dielectric constant tensor:
#      x y z
#    x 1.778000 0.000000 0.000000 
#    y 0.000000 1.778000 0.000000 
#    z 0.000000 0.000000 1.768830 
# 
# From -- ./inp_files/3248.got.cif
#   From: 2010.05.17/outbox.cif.g08.bks.cpg/sg83_2_cif.got.tgz:3248.got - 2010.06.03 18:55:12.
