data_PCOD9543161
_publ_section_title
;
Structure prediction by ZEFSAII (Michael W. Deem and Ramdas Pophale) SiO2 
 PCOD9543161
Probable space group: I -4 
;
_chemical_formula_sum "Si O2"
_cell_formula_units_Z 20
_cell_length_a 8.984957
_cell_length_b 8.984957
_cell_length_c 7.401615
_cell_angle_alpha 90.000000
_cell_angle_beta 90.000000
_cell_angle_gamma 90.000000
_cell_volume 597.528325
_symmetry_space_group_name_H-M "I -4 "
_symmetry_group_IT_number 82
_symmetry_cell_setting 'tetragonal'
loop_
_space_group_symop_operation_xyz
x,y,z
y,-x,-z
-x,-y,z
-y,x,-z
1/2+x,1/2+y,1/2+z
1/2+y,1/2-x,1/2-z
1/2-x,1/2-y,1/2+z
1/2-y,1/2+x,1/2-z
loop_
_atom_site_type_symbol
_atom_site_label
_atom_site_fract_x
_atom_site_fract_y
_atom_site_fract_z
Si Si1 0.904879 0.293090 0.980329
Si Si2 0.706910 0.904878 0.519672
Si Si3 0.500000 0.500000 0.250000
O O1 0.846424 0.452521 0.904187
O O2 0.047479 0.346424 0.095814
O O3 0.750000 0.250000 0.079283
O O4 0.852364 0.952008 0.135506
O O5 0.852364 0.952008 0.635506
#
# Coordination Sequence:
#
# PCOD9543161 Si02
#       3
#     8   8   4
#     4  11  26  51  83 121 166 216 280 348 413 504
#     4  11  26  51  83 121 166 216 280 348 413 504
#     4  12  28  54  88 118 164 232 276 338 440 498
#
# _framework density 33.471217000000003
#
# number of rings (size 3 to 8) (size 9 to 14) (size 15 to 20)
#    0.000    0.800    0.000    4.800    0.000   16.000 
#    0.000   16.000    0.000    0.000    0.000    0.000 
#    0.000    0.000    0.000    0.000    0.000    0.000 
#
# Total GULP energy -55708.220679 kJ/mol
# GULP energy per Si atom -5570.822068 kJ/mol
# Density = 3.339504 g / cm^3
# Si number density = 33.471217 Si / 1000 Ang^3
#
#
#
# Elastic Constant Matrix: (Units=GPa)
#
#
# Indices 1 2 3 4 5 6 
#
# 1 455.5821 127.8231 139.7223 0.0000 0.0000 78.5827
# 2 127.8231 455.5821 139.7223 0.0000 0.0000 -78.5827
# 3 139.7223 139.7223 119.0442 0.0000 0.0000 0.0000
# 4 0.0000 0.0000 0.0000 108.0138 0.0000 0.0000
# 5 0.0000 0.0000 0.0000 0.0000 108.0138 0.0000
# 6 78.5827 -78.5827 0.0000 0.0000 0.0000 119.1074
#
#
#
# Elastic Compliance Matrix: (Units=1/GPa)
#
#
# Indices 1 2 3 4 5 6 
#
# 1 0.004189 -0.000274 -0.004595 0.000000 0.000000 -0.002944
# 2 -0.000274 0.004189 -0.004595 0.000000 0.000000 0.002944
# 3 -0.004595 -0.004595 0.019187 0.000000 0.000000 0.000000
# 4 0.000000 0.000000 0.000000 0.009258 0.000000 0.000000
# 5 0.000000 0.000000 0.000000 0.000000 0.009258 0.000000
# 6 -0.002944 0.002944 0.000000 0.000000 0.000000 0.012281
#
#
# Mechanical properties :
#
#
# Convention : Reuss Voigt Hill
#
# Bulk Modulus (GPa) = 115.78775 204.97157 160.37966
# Shear Modulus (GPa) = 62.36779 108.55639 85.46209
#
# Velocity S-wave (km/s) = 4.32131 5.70115 5.05850
# Velocity P-wave (km/s) = 7.71794 10.23272 9.06298
#
# Compressibility (1/GPa) = 0.00863649
#
# Stress axis : x y z
#
# Youngs Moduli (GPa) = 238.71884 238.71884 52.11879
#
# Poissons Ratio (x) = 0.06539 0.23949
# Poissons Ratio (y) = 0.06539 0.23949
# Poissons Ratio (z) = 1.09695 1.09695
#
# Static dielectric constant tensor:
#      x y z
#    x 2.529820 0.000000 0.000000 
#    y 0.000000 2.529820 0.000000 
#    z 0.000000 0.000000 2.879690 
# 
# From -- ./inp_files/1346.got.cif
#   From: 2010.05.17/outbox.cif.g08.bks.cpg/sg82_1_cif.got.tgz:1346.got - 2010.06.03 18:52:26.
