data_PCOD9543269
_publ_section_title
;
Structure prediction by ZEFSAII (Michael W. Deem and Ramdas Pophale) SiO2 
 PCOD9543269
Probable space group: P 4/M
;
_chemical_formula_sum "Si O2"
_cell_formula_units_Z 64
_cell_length_a 18.375822
_cell_length_b 18.375822
_cell_length_c 13.862217
_cell_angle_alpha 90.000000
_cell_angle_beta 90.000000
_cell_angle_gamma 90.000000
_cell_volume 4680.866378
_symmetry_space_group_name_H-M "P 4/M"
_symmetry_group_IT_number 83
_symmetry_cell_setting 'tetragonal'
loop_
_space_group_symop_operation_xyz
x,y,z
-y,x,z
-x,-y,z
y,-x,z
-x,-y,-z
y,-x,-z
x,y,-z
-y,x,-z
loop_
_atom_site_type_symbol
_atom_site_label
_atom_site_fract_x
_atom_site_fract_y
_atom_site_fract_z
Si Si1 0.433007 0.404223 0.117392
Si Si2 0.092029 0.189826 0.884592
Si Si3 0.196322 0.064668 0.198108
Si Si4 0.311047 0.296398 0.116922
Si Si5 0.653195 0.153141 0.882530
Si Si6 0.500707 0.084229 0.882915
Si Si7 0.882797 0.964174 0.611643
Si Si8 0.870466 0.338144 0.883297
O O1 0.517156 0.401516 0.146487
O O2 0.381519 0.339992 0.151618
O O3 0.433249 0.402800 0.000000
O O4 0.149070 0.132605 0.840789
O O5 0.110141 0.273284 0.854656
O O6 0.010215 0.171827 0.852789
O O7 0.098763 0.186421 0.000000
O O8 0.178118 0.055091 0.310682
O O9 0.280078 0.078304 0.169379
O O10 0.236374 0.333985 0.148269
O O11 0.315312 0.211834 0.140566
O O12 0.311428 0.299696 0.000000
O O13 0.575530 0.121941 0.849155
O O14 0.651391 0.151567 0.000000
O O15 0.422521 0.117888 0.856322
O O16 0.500000 0.000000 0.854185
O O17 0.502860 0.086987 0.000000
O O18 0.860294 0.957322 0.500000
O O19 0.953557 0.912609 0.626349
O O20 0.881528 0.331667 0.000000
#
# Coordination Sequence:
#
# PCOD9543269 Si02
#       8
#     8   8   8   8   8   8   8   8
#     4   8  14  22  32  48  68  92 130 179 218 247
#     4  11  21  30  41  60  91 123 149 178 208 255
#     4  12  20  31  45  63  87 117 147 177 220 261
#     4   9  16  24  35  50  71 102 138 174 216 251
#     4   9  17  29  40  52  75 112 151 182 211 244
#     4   9  17  28  41  54  71 106 152 187 213 244
#     4   9  18  34  51  66  84 108 144 187 225 260
#     4  10  19  29  40  59  87 115 145 184 219 254
#
# _framework density 13.672682
#
# number of rings (size 3 to 8) (size 9 to 14) (size 15 to 20)
#    0.000    2.375    2.500    2.625    1.750    2.250 
#    0.000    0.625    0.000    0.000    0.000    0.000 
#    0.000    5.500    0.000    0.000    0.000    0.000 
#
# Total GULP energy -356365.914739 kJ/mol
# GULP energy per Si atom -5568.217418 kJ/mol
# Density = 1.364156 g / cm^3
# Si number density = 13.672682 Si / 1000 Ang^3
#
#
#
# Elastic Constant Matrix: (Units=GPa)
#
#
# Indices 1 2 3 4 5 6 
#
# 1 52.4181 13.4293 9.5529 0.0000 0.0000 2.9856
# 2 13.4293 52.4181 9.5529 0.0000 0.0000 -2.9856
# 3 9.5529 9.5529 33.5262 0.0000 0.0000 0.0000
# 4 0.0000 0.0000 0.0000 5.2045 0.0000 0.0000
# 5 0.0000 0.0000 0.0000 0.0000 5.2045 0.0000
# 6 2.9856 -2.9856 0.0000 0.0000 0.0000 27.8879
#
#
#
# Elastic Compliance Matrix: (Units=1/GPa)
#
#
# Indices 1 2 3 4 5 6 
#
# 1 0.021316 -0.004760 -0.004717 0.000000 0.000000 -0.002792
# 2 -0.004760 0.021316 -0.004717 0.000000 0.000000 0.002792
# 3 -0.004717 -0.004717 0.032516 0.000000 0.000000 0.000000
# 4 0.000000 0.000000 0.000000 0.192140 0.000000 0.000000
# 5 0.000000 0.000000 0.000000 0.000000 0.192140 0.000000
# 6 -0.002792 0.002792 0.000000 0.000000 0.000000 0.036456
#
#
# Mechanical properties :
#
#
# Convention : Reuss Voigt Hill
#
# Bulk Modulus (GPa) = 21.38699 22.60361 21.99530
# Shear Modulus (GPa) = 9.26170 14.71455 11.98812
#
# Velocity S-wave (km/s) = 2.60549 3.28411 2.96428
# Velocity P-wave (km/s) = 4.97268 5.56312 5.27617
#
# Compressibility (1/GPa) = 0.04675740
#
# Stress axis : x y z
#
# Youngs Moduli (GPa) = 46.91393 46.91393 30.75439
#
# Poissons Ratio (x) = 0.22332 0.14508
# Poissons Ratio (y) = 0.22332 0.14508
# Poissons Ratio (z) = 0.22130 0.22130
#
# Static dielectric constant tensor:
#      x y z
#    x 1.468890 0.000000 0.000000 
#    y 0.000000 1.468890 0.000000 
#    z 0.000000 0.000000 1.408550 
# 
# From -- ./inp_files/2049.got.cif
#   From: 2010.05.17/outbox.cif.g08.bks.cpg/sg83_2_cif.got.tgz:2049.got - 2010.06.03 18:55:12.
