data_PCOD9543040
_publ_section_title
;
Structure prediction by ZEFSAII (Michael W. Deem and Ramdas Pophale) SiO2 
 PCOD9543040
Probable space group: I -4 
;
_chemical_formula_sum "Si O2"
_cell_formula_units_Z 64
_cell_length_a 11.301263
_cell_length_b 11.301263
_cell_length_c 26.875852
_cell_angle_alpha 90.000000
_cell_angle_beta 90.000000
_cell_angle_gamma 90.000000
_cell_volume 3432.544724
_symmetry_space_group_name_H-M "I -4 "
_symmetry_group_IT_number 82
_symmetry_cell_setting 'tetragonal'
loop_
_space_group_symop_operation_xyz
x,y,z
y,-x,-z
-x,-y,z
-y,x,-z
1/2+x,1/2+y,1/2+z
1/2+y,1/2-x,1/2-z
1/2-x,1/2-y,1/2+z
1/2-y,1/2+x,1/2-z
loop_
_atom_site_type_symbol
_atom_site_label
_atom_site_fract_x
_atom_site_fract_y
_atom_site_fract_z
Si Si1 0.229168 0.701767 0.353786
Si Si2 0.926885 0.319887 0.256090
Si Si3 0.412070 0.857137 0.044339
Si Si4 0.675300 0.578537 0.501338
Si Si5 0.960537 0.139077 0.167841
Si Si6 0.186626 0.730901 0.086483
Si Si7 0.879428 0.346936 0.916030
Si Si8 0.973155 0.364566 0.426369
O O1 0.151277 0.712159 0.303967
O O2 0.295658 0.576893 0.352173
O O3 0.330044 0.800062 0.363933
O O4 0.135670 0.694054 0.398207
O O5 0.863623 0.438035 0.232889
O O6 0.932820 0.207196 0.219451
O O7 0.303198 0.774681 0.058159
O O8 0.532865 0.814105 0.069839
O O9 0.377312 0.983849 0.069905
O O10 0.444708 0.864794 0.985758
O O11 0.640839 0.445751 0.514398
O O12 0.760064 0.581407 0.454327
O O13 0.738522 0.642154 0.546385
O O14 0.854402 0.180507 0.130508
O O15 0.000000 0.000000 0.170427
O O16 0.200113 0.591699 0.093621
O O17 0.000000 0.500000 0.411053
#
# Coordination Sequence:
#
# PCOD9543040 Si02
#       8
#     8   8   8   8   8   8   8   8
#     4  11  23  39  66  91 116 161 205 252 311 378
#     4   9  20  41  65  91 120 154 202 257 313 376
#     4  11  23  37  55  83 128 172 204 249 290 364
#     4  11  21  31  53  85 120 153 193 251 301 350
#     4  11  23  38  64  99 125 146 195 272 331 365
#     4  12  22  36  56  88 123 159 208 251 303 368
#     4  11  21  38  54  82 123 166 205 234 301 368
#     4  12  22  37  60  89 122 168 206 247 305 364
#
# _framework density 18.645059
#
# number of rings (size 3 to 8) (size 9 to 14) (size 15 to 20)
#    0.000    1.000    5.000    3.000    3.500    0.000 
#    0.000    4.375    0.000    0.000    0.000    1.750 
#    0.000    0.000    0.000    0.000    0.000    0.000 
#
# Total GULP energy -178264.638454 kJ/mol
# GULP energy per Si atom -5570.769952 kJ/mol
# Density = 1.860262 g / cm^3
# Si number density = 18.645059 Si / 1000 Ang^3
#
#
#
# Elastic Constant Matrix: (Units=GPa)
#
#
# Indices 1 2 3 4 5 6 
#
# 1 94.9943 27.9421 34.8303 0.0000 0.0000 2.3890
# 2 27.9421 94.9943 34.8303 0.0000 0.0000 -2.3890
# 3 34.8303 34.8303 69.2275 0.0000 0.0000 0.0000
# 4 0.0000 0.0000 0.0000 20.6545 0.0000 0.0000
# 5 0.0000 0.0000 0.0000 0.0000 20.6545 0.0000
# 6 2.3890 -2.3890 0.0000 0.0000 0.0000 22.1477
#
#
#
# Elastic Compliance Matrix: (Units=1/GPa)
#
#
# Indices 1 2 3 4 5 6 
#
# 1 0.013204 -0.001826 -0.005725 0.000000 0.000000 -0.001621
# 2 -0.001826 0.013204 -0.005725 0.000000 0.000000 0.001621
# 3 -0.005725 -0.005725 0.020206 0.000000 0.000000 0.000000
# 4 0.000000 0.000000 0.000000 0.048416 0.000000 0.000000
# 5 0.000000 0.000000 0.000000 0.000000 0.048416 0.000000
# 6 -0.001621 0.001621 0.000000 0.000000 0.000000 0.045501
#
#
# Mechanical properties :
#
#
# Convention : Reuss Voigt Hill
#
# Bulk Modulus (GPa) = 49.84244 50.49126 50.16685
# Shear Modulus (GPa) = 22.50399 23.46556 22.98477
#
# Velocity S-wave (km/s) = 3.47791 3.55144 3.51487
# Velocity P-wave (km/s) = 6.55119 6.62993 6.59068
#
# Compressibility (1/GPa) = 0.02006322
#
# Stress axis : x y z
#
# Youngs Moduli (GPa) = 75.73646 75.73646 49.49129
#
# Poissons Ratio (x) = 0.13826 0.28332
# Poissons Ratio (y) = 0.13826 0.28332
# Poissons Ratio (z) = 0.43356 0.43356
#
# Static dielectric constant tensor:
#      x y z
#    x 1.709890 0.000000 0.000000 
#    y 0.000000 1.709890 0.000000 
#    z 0.000000 0.000000 1.671350 
# 
# From -- ./inp_files/3799.got.cif
#   From: 2010.05.17/outbox.cif.g08.bks.cpg/sg82_2_cif.got.tgz:3799.got - 2010.06.03 18:52:26.
