data_PCOD9543364
_publ_section_title
;
Structure prediction by ZEFSAII (Michael W. Deem and Ramdas Pophale) SiO2 
 PCOD9543364
Probable space group: P 4/M
;
_chemical_formula_sum "Si O2"
_cell_formula_units_Z 58
_cell_length_a 18.167725
_cell_length_b 18.167725
_cell_length_c 7.527360
_cell_angle_alpha 90.000000
_cell_angle_beta 90.000000
_cell_angle_gamma 90.000000
_cell_volume 2484.527350
_symmetry_space_group_name_H-M "P 4/M"
_symmetry_group_IT_number 83
_symmetry_cell_setting 'tetragonal'
loop_
_space_group_symop_operation_xyz
x,y,z
-y,x,z
-x,-y,z
y,-x,z
-x,-y,-z
y,-x,-z
x,y,-z
-y,x,-z
loop_
_atom_site_type_symbol
_atom_site_label
_atom_site_fract_x
_atom_site_fract_y
_atom_site_fract_z
Si Si1 0.864043 0.387583 0.215358
Si Si2 0.715965 0.456804 0.782481
Si Si3 0.294223 0.838513 0.292657
Si Si4 0.314298 0.378171 0.214936
Si Si5 0.143266 0.772597 0.793882
Si Si6 0.034118 0.402772 0.796296
Si Si7 0.000000 0.500000 0.500000
Si Si8 0.036555 0.887863 0.217233
O O1 0.800687 0.443422 0.274319
O O2 0.836515 0.307124 0.276946
O O3 0.950265 0.385766 0.265970
O O4 0.864764 0.394113 0.000000
O O5 0.687289 0.536741 0.725966
O O6 0.666704 0.386753 0.725743
O O7 0.715204 0.456669 0.000000
O O8 0.285769 0.851220 0.500000
O O9 0.339701 0.762946 0.264210
O O10 0.213475 0.825026 0.214902
O O11 0.336326 0.908831 0.215726
O O12 0.316235 0.377396 0.000000
O O13 0.072152 0.812823 0.716402
O O14 0.125692 0.759077 0.000000
O O15 0.053924 0.465239 0.656429
O O16 0.034153 0.427255 0.000000
O O17 0.955066 0.910271 0.271622
O O18 0.036272 0.886530 0.000000
#
# Coordination Sequence:
#
# PCOD9543364 Si02
#       8
#     8   8   8   8   8   8   2   8
#     4   9  19  36  59  92 125 166 220 263 321 394
#     4   9  18  34  60  94 123 154 205 260 317 393
#     4  12  25  42  59  92 128 168 223 268 322 396
#     4  10  20  38  64  90 122 162 204 261 329 390
#     4  10  19  35  62  87 118 161 211 264 320 385
#     4  11  25  44  68  95 135 177 214 273 332 387
#     4  12  26  48  64 102 132 164 230 268 320 414
#     4   8  15  27  48  83 118 149 197 259 318 376
#
# _framework density 23.344477999999999
#
# number of rings (size 3 to 8) (size 9 to 14) (size 15 to 20)
#    0.000    2.069    2.069    1.862    3.862    0.276 
#    1.241    2.069    0.000    0.000    0.000    1.931 
#    0.000    0.000    0.000    0.000    0.000    0.000 
#
# Total GULP energy -323420.189296 kJ/mol
# GULP energy per Si atom -5576.210160 kJ/mol
# Density = 2.329134 g / cm^3
# Si number density = 23.344478 Si / 1000 Ang^3
#
#
#
# Elastic Constant Matrix: (Units=GPa)
#
#
# Indices 1 2 3 4 5 6 
#
# 1 94.3279 35.8880 -6.5093 0.0000 0.0000 3.4660
# 2 35.8880 94.3279 -6.5093 0.0000 0.0000 -3.4660
# 3 -6.5093 -6.5093 73.5835 0.0000 0.0000 0.0000
# 4 0.0000 0.0000 0.0000 11.0523 0.0000 0.0000
# 5 0.0000 0.0000 0.0000 0.0000 11.0523 0.0000
# 6 3.4660 -3.4660 0.0000 0.0000 0.0000 40.7030
#
#
#
# Elastic Compliance Matrix: (Units=1/GPa)
#
#
# Indices 1 2 3 4 5 6 
#
# 1 0.012517 -0.004769 0.000685 0.000000 0.000000 -0.001472
# 2 -0.004769 0.012517 0.000685 0.000000 0.000000 0.001472
# 3 0.000685 0.000685 0.013711 0.000000 0.000000 0.000000
# 4 0.000000 0.000000 0.000000 0.090479 0.000000 0.000000
# 5 0.000000 0.000000 0.000000 0.000000 0.090479 0.000000
# 6 -0.001472 0.001472 0.000000 0.000000 0.000000 0.024819
#
#
# Mechanical properties :
#
#
# Convention : Reuss Voigt Hill
#
# Bulk Modulus (GPa) = 31.29984 34.21979 32.75982
# Shear Modulus (GPa) = 19.08623 28.51950 23.80286
#
# Velocity S-wave (km/s) = 2.86246 3.49905 3.19664
# Velocity P-wave (km/s) = 4.93577 5.56910 5.26197
#
# Compressibility (1/GPa) = 0.03194904
#
# Stress axis : x y z
#
# Youngs Moduli (GPa) = 79.89054 79.89054 72.93270
#
# Poissons Ratio (x) = 0.38100 -0.04999
# Poissons Ratio (y) = 0.38100 -0.04999
# Poissons Ratio (z) = -0.05476 -0.05476
#
# Static dielectric constant tensor:
#      x y z
#    x 1.922120 0.000000 0.000000 
#    y 0.000000 1.922120 0.000000 
#    z 0.000000 0.000000 1.880670 
# 
# From -- ./inp_files/1118.got.cif
#   From: 2010.05.17/outbox.cif.g08.bks.cpg/sg83_1_cif.got.tgz:1118.got - 2010.06.03 18:55:12.
