data_PCOD9543361
_publ_section_title
;
Structure prediction by ZEFSAII (Michael W. Deem and Ramdas Pophale) SiO2 
 PCOD9543361
Probable space group: P 4/M
;
_chemical_formula_sum "Si O2"
_cell_formula_units_Z 64
_cell_length_a 19.277140
_cell_length_b 19.277140
_cell_length_c 9.403617
_cell_angle_alpha 90.000000
_cell_angle_beta 90.000000
_cell_angle_gamma 90.000000
_cell_volume 3494.460496
_symmetry_space_group_name_H-M "P 4/M"
_symmetry_group_IT_number 83
_symmetry_cell_setting 'tetragonal'
loop_
_space_group_symop_operation_xyz
x,y,z
-y,x,z
-x,-y,z
y,-x,z
-x,-y,-z
y,-x,-z
x,y,-z
-y,x,-z
loop_
_atom_site_type_symbol
_atom_site_label
_atom_site_fract_x
_atom_site_fract_y
_atom_site_fract_z
Si Si1 0.708964 0.590509 0.162943
Si Si2 0.806063 0.190354 0.663281
Si Si3 0.081314 0.289728 0.171098
Si Si4 0.156394 0.590256 0.829247
Si Si5 0.663490 0.724320 0.336928
Si Si6 0.264806 0.078700 0.166934
Si Si7 0.509942 0.384087 0.341280
Si Si8 0.872572 0.562151 0.165502
O O1 0.680860 0.653397 0.257128
O O2 0.672682 0.521771 0.222565
O O3 0.791435 0.582668 0.172822
O O4 0.690449 0.602656 0.000000
O O5 0.815865 0.168073 0.500000
O O6 0.760006 0.135537 0.750182
O O7 0.764744 0.263224 0.661875
O O8 0.877794 0.210604 0.740129
O O9 0.088487 0.369871 0.223313
O O10 0.003123 0.264173 0.193326
O O11 0.095633 0.289590 0.000000
O O12 0.226641 0.609880 0.746424
O O13 0.106461 0.656588 0.807690
O O14 0.124048 0.516837 0.778830
O O15 0.169888 0.584237 0.000000
O O16 0.641728 0.712497 0.500000
O O17 0.250478 0.091707 0.000000
O O18 0.571378 0.440598 0.328540
O O19 0.513886 0.353746 0.500000
O O20 0.894197 0.556986 0.000000
#
# Coordination Sequence:
#
# PCOD9543361 Si02
#       8
#     8   8   8   8   8   8   8   8
#     4  11  21  32  49  73  99 131 171 221 275 319
#     4  10  20  35  56  81 111 145 183 226 268 316
#     4  10  19  35  58  84 114 147 185 224 268 322
#     4   9  18  34  53  78 111 143 179 219 268 321
#     4  10  20  34  51  73 100 137 182 225 269 317
#     4   9  19  34  58  86 112 149 186 222 268 321
#     4   9  20  38  53  66  91 128 169 218 277 336
#     4   9  19  33  51  78 111 142 176 224 271 319
#
# _framework density 18.314703000000002
#
# number of rings (size 3 to 8) (size 9 to 14) (size 15 to 20)
#    0.000    2.375    1.250    1.500    1.750    2.500 
#    0.000    4.375    0.000    0.375    0.000    7.000 
#    0.000    0.000    0.000    0.000    0.000    0.000 
#
# Total GULP energy -356985.923177 kJ/mol
# GULP energy per Si atom -5577.905050 kJ/mol
# Density = 1.827302 g / cm^3
# Si number density = 18.314703 Si / 1000 Ang^3
#
#
#
# Elastic Constant Matrix: (Units=GPa)
#
#
# Indices 1 2 3 4 5 6 
#
# 1 102.8336 -9.1799 36.3778 0.0000 0.0000 -50.9034
# 2 -9.1799 102.8336 36.3778 0.0000 0.0000 50.9034
# 3 36.3778 36.3778 70.5951 0.0000 0.0000 0.0000
# 4 0.0000 0.0000 0.0000 16.4969 0.0000 0.0000
# 5 0.0000 0.0000 0.0000 0.0000 16.4969 0.0000
# 6 -50.9034 50.9034 0.0000 0.0000 0.0000 100.9747
#
#
#
# Elastic Compliance Matrix: (Units=1/GPa)
#
#
# Indices 1 2 3 4 5 6 
#
# 1 0.017141 0.000664 -0.009175 0.000000 0.000000 0.008306
# 2 0.000664 0.017141 -0.009175 0.000000 0.000000 -0.008306
# 3 -0.009175 -0.009175 0.023621 0.000000 0.000000 0.000000
# 4 0.000000 0.000000 0.000000 0.060617 0.000000 0.000000
# 5 0.000000 0.000000 0.000000 0.000000 0.060617 0.000000
# 6 0.008306 -0.008306 0.000000 0.000000 0.000000 0.018278
#
#
# Mechanical properties :
#
#
# Convention : Reuss Voigt Hill
#
# Bulk Modulus (GPa) = 44.38247 44.82376 44.60311
# Shear Modulus (GPa) = 20.80734 40.97281 30.89008
#
# Velocity S-wave (km/s) = 3.37427 4.73499 4.11131
# Velocity P-wave (km/s) = 6.28226 7.37705 6.85155
#
# Compressibility (1/GPa) = 0.02253142
#
# Stress axis : x y z
#
# Youngs Moduli (GPa) = 58.33883 58.33883 42.33468
#
# Poissons Ratio (x) = -0.03875 0.38843
# Poissons Ratio (y) = -0.03875 0.38843
# Poissons Ratio (z) = 0.53527 0.53527
#
# Static dielectric constant tensor:
#      x y z
#    x 1.634730 0.000000 0.000000 
#    y 0.000000 1.634730 0.000000 
#    z 0.000000 0.000000 1.624900 
# 
# From -- ./inp_files/1252.got.cif
#   From: 2010.05.17/outbox.cif.g08.bks.cpg/sg83_1_cif.got.tgz:1252.got - 2010.06.03 18:55:12.
