data_PCOD9543013
_publ_section_title
;
Structure prediction by ZEFSAII (Michael W. Deem and Ramdas Pophale) SiO2 
 PCOD9543013
Probable space group: I -4 
;
_chemical_formula_sum "Si O2"
_cell_formula_units_Z 48
_cell_length_a 13.881627
_cell_length_b 13.881627
_cell_length_c 10.713061
_cell_angle_alpha 90.000000
_cell_angle_beta 90.000000
_cell_angle_gamma 90.000000
_cell_volume 2064.402228
_symmetry_space_group_name_H-M "I -4 "
_symmetry_group_IT_number 82
_symmetry_cell_setting 'tetragonal'
loop_
_space_group_symop_operation_xyz
x,y,z
y,-x,-z
-x,-y,z
-y,x,-z
1/2+x,1/2+y,1/2+z
1/2+y,1/2-x,1/2-z
1/2-x,1/2-y,1/2+z
1/2-y,1/2+x,1/2-z
loop_
_atom_site_type_symbol
_atom_site_label
_atom_site_fract_x
_atom_site_fract_y
_atom_site_fract_z
Si Si1 0.000000 0.500000 0.250000
Si Si2 0.658711 0.634086 0.298767
Si Si3 0.334309 0.872981 0.627268
Si Si4 0.170377 0.631483 0.841146
Si Si5 0.000000 0.000000 0.829838
Si Si6 0.500000 0.000000 0.250000
Si Si7 0.635769 0.332421 0.229170
Si Si8 0.644210 0.568424 0.020859
O O1 0.055377 0.418858 0.331352
O O2 0.761414 0.636017 0.362667
O O3 0.620560 0.740769 0.257764
O O4 0.585068 0.568998 0.380119
O O5 0.675910 0.588049 0.161054
O O6 0.302790 0.885940 0.484540
O O7 0.242136 0.877584 0.718950
O O8 0.137661 0.742514 0.821593
O O9 0.082512 0.559691 0.819786
O O10 0.940076 0.083133 0.757542
O O11 0.608696 0.291208 0.091483
O O12 0.620109 0.458209 0.997183
#
# Coordination Sequence:
#
# PCOD9543013 Si02
#       8
#     2   8   8   8   4   2   8   8
#     4  12  26  48  68  94 128 182 232 276 326 392
#     4  11  22  40  69 102 133 169 220 272 330 390
#     4  11  26  47  66  96 135 179 223 273 331 395
#     4  11  26  47  66  96 135 179 223 273 331 395
#     4  12  20  41  69 108 130 160 221 273 328 386
#     4  12  26  48  68  94 128 182 232 276 326 392
#     4  11  22  40  69 102 133 169 220 272 330 390
#     4  11  18  34  70 102 132 169 216 278 326 381
#
# _framework density 23.251282
#
# number of rings (size 3 to 8) (size 9 to 14) (size 15 to 20)
#    0.000    0.833    5.000    2.500    0.000    0.000 
#    3.000    9.167    0.000    0.000    0.000    0.000 
#    0.000    0.000    0.000    0.000    0.000    0.000 
#
# Total GULP energy -134046.366113 kJ/mol
# GULP energy per Si atom -5585.265255 kJ/mol
# Density = 2.319836 g / cm^3
# Si number density = 23.251282 Si / 1000 Ang^3
#
#
#
# Elastic Constant Matrix: (Units=GPa)
#
#
# Indices 1 2 3 4 5 6 
#
# 1 129.3135 76.5740 28.3371 0.0000 0.0000 0.5037
# 2 76.5740 129.3135 28.3371 0.0000 0.0000 -0.5037
# 3 28.3371 28.3371 54.6788 0.0000 0.0000 0.0000
# 4 0.0000 0.0000 0.0000 14.8595 0.0000 0.0000
# 5 0.0000 0.0000 0.0000 0.0000 14.8595 0.0000
# 6 0.5037 -0.5037 0.0000 0.0000 0.0000 49.2890
#
#
#
# Elastic Compliance Matrix: (Units=1/GPa)
#
#
# Indices 1 2 3 4 5 6 
#
# 1 0.012315 -0.006650 -0.002936 0.000000 0.000000 -0.000194
# 2 -0.006650 0.012315 -0.002936 0.000000 0.000000 0.000194
# 3 -0.002936 -0.002936 0.021332 0.000000 0.000000 0.000000
# 4 0.000000 0.000000 0.000000 0.067297 0.000000 0.000000
# 5 0.000000 0.000000 0.000000 0.000000 0.067297 0.000000
# 6 -0.000194 0.000194 0.000000 0.000000 0.000000 0.020292
#
#
# Mechanical properties :
#
#
# Convention : Reuss Voigt Hill
#
# Bulk Modulus (GPa) = 47.80513 64.42245 56.11379
# Shear Modulus (GPa) = 21.47169 27.80543 24.63856
#
# Velocity S-wave (km/s) = 3.04215 3.46188 3.25878
# Velocity P-wave (km/s) = 5.73972 6.61413 6.19238
#
# Compressibility (1/GPa) = 0.02091826
#
# Stress axis : x y z
#
# Youngs Moduli (GPa) = 81.20167 81.20167 46.87855
#
# Poissons Ratio (x) = 0.53998 0.13763
# Poissons Ratio (y) = 0.53998 0.13763
# Poissons Ratio (z) = 0.23841 0.23841
#
# Static dielectric constant tensor:
#      x y z
#    x 1.908450 0.000000 0.000000 
#    y 0.000000 1.908450 0.000000 
#    z 0.000000 0.000000 1.880490 
# 
# From -- ./inp_files/1819.got.cif
#   From: 2010.05.17/outbox.cif.g08.bks.cpg/sg82_1_cif.got.tgz:1819.got - 2010.06.03 18:52:26.
