data_PCOD9543051
_publ_section_title
;
Structure prediction by ZEFSAII (Michael W. Deem and Ramdas Pophale) SiO2 
 PCOD9543051
Probable space group: I -4 
;
_chemical_formula_sum "Si O2"
_cell_formula_units_Z 44
_cell_length_a 14.217099
_cell_length_b 14.217099
_cell_length_c 11.601652
_cell_angle_alpha 90.000000
_cell_angle_beta 90.000000
_cell_angle_gamma 90.000000
_cell_volume 2344.994398
_symmetry_space_group_name_H-M "I -4 "
_symmetry_group_IT_number 82
_symmetry_cell_setting 'tetragonal'
loop_
_space_group_symop_operation_xyz
x,y,z
y,-x,-z
-x,-y,z
-y,x,-z
1/2+x,1/2+y,1/2+z
1/2+y,1/2-x,1/2-z
1/2-x,1/2-y,1/2+z
1/2-y,1/2+x,1/2-z
loop_
_atom_site_type_symbol
_atom_site_label
_atom_site_fract_x
_atom_site_fract_y
_atom_site_fract_z
Si Si1 0.898756 0.397029 0.300866
Si Si2 0.300301 0.712586 0.836323
Si Si3 0.583976 0.189599 0.293338
Si Si4 0.500000 0.500000 0.500000
Si Si5 0.852417 0.325693 0.535701
Si Si6 0.500000 0.000000 0.250000
Si Si7 0.423887 0.328794 0.360567
O O1 0.873071 0.498458 0.249927
O O2 0.841142 0.229393 0.463310
O O3 0.898982 0.394714 0.440660
O O4 0.189219 0.695608 0.839927
O O5 0.325493 0.812799 0.775161
O O6 0.343326 0.631060 0.758948
O O7 0.592891 0.187280 0.154166
O O8 0.521180 0.275202 0.335119
O O9 0.533835 0.090762 0.321656
O O10 0.442178 0.425268 0.424857
O O11 0.748275 0.363666 0.567426
#
# Coordination Sequence:
#
# PCOD9543051 Si02
#       7
#     8   8   8   2   8   2   8
#     4   9  20  39  58  91 127 162 212 259 304 379
#     4   9  21  40  60  88 131 156 207 261 316 372
#     4  11  21  42  62  94 129 161 211 265 310 379
#     4  12  28  40  68  90 120 176 220 248 312 398
#     4   9  21  40  60  91 122 165 203 249 336 355
#     4  12  20  36  68  96 126 156 212 272 300 384
#     4  11  23  41  62  91 124 165 211 259 308 378
#
# _framework density 18.763370999999999
#
# number of rings (size 3 to 8) (size 9 to 14) (size 15 to 20)
#    1.091    0.909    3.636    1.091    2.545    1.455 
#    6.545    0.000    0.000    0.000    0.000    0.000 
#    0.000    0.000    0.000    0.000    0.000    0.000 
#
# Total GULP energy -122533.186193 kJ/mol
# GULP energy per Si atom -5569.690282 kJ/mol
# Density = 1.872066 g / cm^3
# Si number density = 18.763371 Si / 1000 Ang^3
#
#
#
# Elastic Constant Matrix: (Units=GPa)
#
#
# Indices 1 2 3 4 5 6 
#
# 1 33.8532 17.3822 5.1185 0.0000 0.0000 0.4259
# 2 17.3822 33.8532 5.1185 0.0000 0.0000 -0.4259
# 3 5.1185 5.1185 68.6952 0.0000 0.0000 0.0000
# 4 0.0000 0.0000 0.0000 27.7173 0.0000 0.0000
# 5 0.0000 0.0000 0.0000 0.0000 27.7173 0.0000
# 6 0.4259 -0.4259 0.0000 0.0000 0.0000 38.8724
#
#
#
# Elastic Compliance Matrix: (Units=1/GPa)
#
#
# Indices 1 2 3 4 5 6 
#
# 1 0.040280 -0.020467 -0.001476 0.000000 0.000000 -0.000666
# 2 -0.020467 0.040280 -0.001476 0.000000 0.000000 0.000666
# 3 -0.001476 -0.001476 0.014777 0.000000 0.000000 0.000000
# 4 0.000000 0.000000 0.000000 0.036079 0.000000 0.000000
# 5 0.000000 0.000000 0.000000 0.000000 0.036079 0.000000
# 6 -0.000666 0.000666 0.000000 0.000000 0.000000 0.025740
#
#
# Mechanical properties :
#
#
# Convention : Reuss Voigt Hill
#
# Bulk Modulus (GPa) = 20.61961 21.29331 20.95646
# Shear Modulus (GPa) = 19.51304 26.11357 22.81331
#
# Velocity S-wave (km/s) = 3.22833 3.73464 3.49068
# Velocity P-wave (km/s) = 4.99092 5.47446 5.23827
#
# Compressibility (1/GPa) = 0.04849753
#
# Stress axis : x y z
#
# Youngs Moduli (GPa) = 24.82628 24.82628 67.67251
#
# Poissons Ratio (x) = 0.50812 0.09990
# Poissons Ratio (y) = 0.50812 0.09990
# Poissons Ratio (z) = 0.03665 0.03665
#
# Static dielectric constant tensor:
#      x y z
#    x 1.651420 0.000000 0.000000 
#    y 0.000000 1.651420 0.000000 
#    z 0.000000 0.000000 1.662220 
# 
# From -- ./inp_files/1726.got.cif
#   From: 2010.05.17/outbox.cif.g08.bks.cpg/sg82_1_cif.got.tgz:1726.got - 2010.06.03 18:52:26.
