data_PCOD9543673
_publ_section_title
;
Structure prediction by ZEFSAII (Michael W. Deem and Ramdas Pophale) SiO2 
 PCOD9543673
Probable space group: P 4/M
;
_chemical_formula_sum "Si O2"
_cell_formula_units_Z 36
_cell_length_a 14.928551
_cell_length_b 14.928551
_cell_length_c 8.163648
_cell_angle_alpha 90.000000
_cell_angle_beta 90.000000
_cell_angle_gamma 90.000000
_cell_volume 1819.363941
_symmetry_space_group_name_H-M "P 4/M"
_symmetry_group_IT_number 83
_symmetry_cell_setting 'tetragonal'
loop_
_space_group_symop_operation_xyz
x,y,z
-y,x,z
-x,-y,z
y,-x,z
-x,-y,-z
y,-x,-z
x,y,-z
-y,x,-z
loop_
_atom_site_type_symbol
_atom_site_label
_atom_site_fract_x
_atom_site_fract_y
_atom_site_fract_z
Si Si1 0.437276 0.632440 0.000000
Si Si2 0.666503 0.784175 0.803547
Si Si3 0.836682 0.662790 0.803245
Si Si4 0.981290 0.395261 0.697503
Si Si5 0.478702 0.723149 0.676708
O O1 0.387290 0.541302 0.000000
O O2 0.426865 0.677016 0.825791
O O3 0.764316 0.741428 0.761424
O O4 0.582905 0.736097 0.712945
O O5 0.645490 0.887341 0.761620
O O6 0.656841 0.772133 0.000000
O O7 0.941186 0.671373 0.763650
O O8 0.815554 0.575237 0.690824
O O9 0.828532 0.645273 0.000000
O O10 0.978568 0.395537 0.500000
O O11 0.000000 0.500000 0.751999
O O12 0.465900 0.680615 0.500000
#
# Coordination Sequence:
#
# PCOD9543673 Si02
#       5
#     4   8   8   8   8
#     4  11  24  40  54  75 114 162 210 259 314 375
#     4  11  23  40  64  92 125 167 212 260 318 380
#     4  11  23  40  64  92 125 167 212 260 318 380
#     4  11  23  39  61  96 130 163 212 264 319 383
#     4  12  23  38  60  87 120 160 210 260 312 373
#
# _framework density 19.787133999999998
#
# number of rings (size 3 to 8) (size 9 to 14) (size 15 to 20)
#    0.000    0.778    4.444    3.333    0.000    7.111 
#    0.000    1.111    0.000    0.667    0.000    4.667 
#    0.000    0.000    0.000    0.000    0.000    0.000 
#
# Total GULP energy -200590.094613 kJ/mol
# GULP energy per Si atom -5571.947073 kJ/mol
# Density = 1.974210 g / cm^3
# Si number density = 19.787134 Si / 1000 Ang^3
#
#
#
# Elastic Constant Matrix: (Units=GPa)
#
#
# Indices 1 2 3 4 5 6 
#
# 1 116.3817 49.2378 19.5964 0.0000 0.0000 -4.9765
# 2 49.2378 116.3817 19.5964 0.0000 0.0000 4.9765
# 3 19.5964 19.5964 104.6586 0.0000 0.0000 0.0000
# 4 0.0000 0.0000 0.0000 6.7996 0.0000 0.0000
# 5 0.0000 0.0000 0.0000 0.0000 6.7996 0.0000
# 6 -4.9765 4.9765 0.0000 0.0000 0.0000 26.1336
#
#
#
# Elastic Compliance Matrix: (Units=1/GPa)
#
#
# Indices 1 2 3 4 5 6 
#
# 1 0.010822 -0.004504 -0.001183 0.000000 0.000000 0.002918
# 2 -0.004504 0.010822 -0.001183 0.000000 0.000000 -0.002918
# 3 -0.001183 -0.001183 0.009998 0.000000 0.000000 0.000000
# 4 0.000000 0.000000 0.000000 0.147067 0.000000 0.000000
# 5 0.000000 0.000000 0.000000 0.000000 0.147067 0.000000
# 6 0.002918 -0.002918 0.000000 0.000000 0.000000 0.039376
#
#
# Mechanical properties :
#
#
# Convention : Reuss Voigt Hill
#
# Bulk Modulus (GPa) = 55.86040 57.14256 56.50148
# Shear Modulus (GPa) = 12.99178 24.54600 18.76889
#
# Velocity S-wave (km/s) = 2.56516 3.52590 3.08318
# Velocity P-wave (km/s) = 6.08813 6.74665 6.42583
#
# Compressibility (1/GPa) = 0.01790177
#
# Stress axis : x y z
#
# Youngs Moduli (GPa) = 92.40490 92.40490 100.02122
#
# Poissons Ratio (x) = 0.41620 0.11832
# Poissons Ratio (y) = 0.41620 0.11832
# Poissons Ratio (z) = 0.10931 0.10931
#
# Static dielectric constant tensor:
#      x y z
#    x 1.751640 0.000000 0.000000 
#    y 0.000000 1.751640 0.000000 
#    z 0.000000 0.000000 1.871090 
# 
# From -- ./inp_files/562.got.cif
#   From: 2010.05.17/outbox.cif.g08.bks.cpg/sg83_1_cif.got.tgz:562.got - 2010.06.03 18:55:12.
