data_PCOD9543885
_publ_section_title
;
Structure prediction by ZEFSAII (Michael W. Deem and Ramdas Pophale) SiO2 
 PCOD9543885
Probable space group: P 4/M
;
_chemical_formula_sum "Si O2"
_cell_formula_units_Z 40
_cell_length_a 7.906700
_cell_length_b 7.906700
_cell_length_c 28.629338
_cell_angle_alpha 90.000000
_cell_angle_beta 90.000000
_cell_angle_gamma 90.000000
_cell_volume 1789.788971
_symmetry_space_group_name_H-M "P 4/M"
_symmetry_group_IT_number 83
_symmetry_cell_setting 'tetragonal'
loop_
_space_group_symop_operation_xyz
x,y,z
-y,x,z
-x,-y,z
y,-x,z
-x,-y,-z
y,-x,-z
x,y,-z
-y,x,-z
loop_
_atom_site_type_symbol
_atom_site_label
_atom_site_fract_x
_atom_site_fract_y
_atom_site_fract_z
Si Si1 0.229780 0.589595 0.550390
Si Si2 0.100324 0.731935 0.253919
Si Si3 0.907409 0.268876 0.643631
Si Si4 0.390909 0.765301 0.000000
Si Si5 0.000000 0.500000 0.822477
Si Si6 0.605178 0.233095 0.898420
O O1 0.295331 0.398044 0.551124
O O2 0.144393 0.623705 0.500000
O O3 0.131606 0.628805 0.597348
O O4 0.127828 0.652869 0.305394
O O5 0.903748 0.791803 0.250936
O O6 0.124071 0.602535 0.211894
O O7 0.099598 0.205736 0.642444
O O8 0.289617 0.587885 0.000000
O O9 0.358913 0.846987 0.949616
O O10 0.102813 0.374567 0.856446
O O11 0.709774 0.407322 0.895643
#
# Coordination Sequence:
#
# PCOD9543885 Si02
#       6
#     8   8   8   4   4   8
#     4   9  19  35  53  76 106 133 157 194 247 299
#     4   9  20  37  51  68  99 134 165 201 249 297
#     4   9  19  35  53  72  96 129 169 207 239 285
#     4   7  12  27  48  66  94 134 162 192 244 294
#     4  12  20  29  52  78  97 126 166 210 250 290
#     4   9  18  32  49  72 101 130 164 204 245 292
#
# _framework density 22.349004000000001
#
# number of rings (size 3 to 8) (size 9 to 14) (size 15 to 20)
#    0.000    2.900    0.000    4.200    0.000    5.200 
#    0.000    3.000    0.000    2.400    0.000    0.000 
#    0.000   12.800    0.000    0.000    0.000    0.000 
#
# Total GULP energy -223329.117851 kJ/mol
# GULP energy per Si atom -5583.227946 kJ/mol
# Density = 2.229814 g / cm^3
# Si number density = 22.349004 Si / 1000 Ang^3
#
#
#
# Elastic Constant Matrix: (Units=GPa)
#
#
# Indices 1 2 3 4 5 6 
#
# 1 30.2787 -1.5033 32.5602 0.0000 0.0000 -3.8470
# 2 -1.5033 30.2787 32.5602 0.0000 0.0000 3.8470
# 3 32.5602 32.5602 234.2055 0.0000 0.0000 0.0000
# 4 0.0000 0.0000 0.0000 43.9466 0.0000 0.0000
# 5 0.0000 0.0000 0.0000 0.0000 43.9466 0.0000
# 6 -3.8470 3.8470 0.0000 0.0000 0.0000 21.4542
#
#
#
# Elastic Compliance Matrix: (Units=1/GPa)
#
#
# Indices 1 2 3 4 5 6 
#
# 1 0.041798 0.008906 -0.007049 0.000000 0.000000 0.005898
# 2 0.008906 0.041798 -0.007049 0.000000 0.000000 -0.005898
# 3 -0.007049 -0.007049 0.006230 0.000000 0.000000 0.000000
# 4 0.000000 0.000000 0.000000 0.022755 0.000000 0.000000
# 5 0.000000 0.000000 0.000000 0.000000 0.022755 0.000000
# 6 0.005898 -0.005898 0.000000 0.000000 0.000000 0.048726
#
#
# Mechanical properties :
#
#
# Convention : Reuss Voigt Hill
#
# Bulk Modulus (GPa) = 12.58779 46.88858 29.73818
# Shear Modulus (GPa) = 22.63190 37.27921 29.95555
#
# Velocity S-wave (km/s) = 3.18568 4.08860 3.66505
# Velocity P-wave (km/s) = 4.37904 6.58139 5.58975
#
# Compressibility (1/GPa) = 0.07944208
#
# Stress axis : x y z
#
# Youngs Moduli (GPa) = 23.92441 23.92441 160.51997
#
# Poissons Ratio (x) = -0.21307 1.13153
# Poissons Ratio (y) = -0.21307 1.13153
# Poissons Ratio (z) = 0.16865 0.16865
#
# Static dielectric constant tensor:
#      x y z
#    x 1.833710 0.000000 0.000000 
#    y 0.000000 1.833710 0.000000 
#    z 0.000000 0.000000 1.871390 
# 
# From -- ./inp_files/3280.got.cif
#   From: 2010.05.17/outbox.cif.g08.bks.cpg/sg83_2_cif.got.tgz:3280.got - 2010.06.03 18:55:12.
