data_PCOD9543655
_publ_section_title
;
Structure prediction by ZEFSAII (Michael W. Deem and Ramdas Pophale) SiO2 
 PCOD9543655
Probable space group: P 4/M
;
_chemical_formula_sum "Si O2"
_cell_formula_units_Z 21
_cell_length_a 8.547190
_cell_length_b 8.547190
_cell_length_c 13.738886
_cell_angle_alpha 90.000000
_cell_angle_beta 90.000000
_cell_angle_gamma 90.000000
_cell_volume 1003.686855
_symmetry_space_group_name_H-M "P 4/M"
_symmetry_group_IT_number 83
_symmetry_cell_setting 'tetragonal'
loop_
_space_group_symop_operation_xyz
x,y,z
-y,x,z
-x,-y,z
y,-x,z
-x,-y,-z
y,-x,-z
x,y,-z
-y,x,-z
loop_
_atom_site_type_symbol
_atom_site_label
_atom_site_fract_x
_atom_site_fract_y
_atom_site_fract_z
Si Si1 0.877508 0.235736 0.795269
Si Si2 0.000000 0.000000 0.000000
Si Si3 0.095309 0.659192 0.000000
Si Si4 0.261695 0.613841 0.392413
O O1 0.825964 0.326336 0.893440
O O2 0.837727 0.328532 0.698064
O O3 0.063979 0.201558 0.795877
O O4 0.189379 0.981187 0.000000
O O5 0.000000 0.500000 0.000000
O O6 0.299631 0.429725 0.386867
O O7 0.193200 0.646169 0.500000
#
# Coordination Sequence:
#
# PCOD9543655 Si02
#       4
#     8   1   4   8
#     4  11  22  40  63  92 130 168 215 274 329 397
#     4  12  20  52  60  96 150 172 228 300 316 410
#     4  12  24  40  70  94 132 188 218 268 372 402
#     4   9  21  41  62  89 129 172 217 275 334 393
#
# _framework density 20.922861999999999
#
# number of rings (size 3 to 8) (size 9 to 14) (size 15 to 20)
#    0.000    1.524    3.810    1.143    5.333    1.524 
#    0.000    5.714    0.000    2.857    0.000    0.000 
#    0.000    0.000    0.000    0.000    0.000    0.000 
#
# Total GULP energy -116941.033819 kJ/mol
# GULP energy per Si atom -5568.620658 kJ/mol
# Density = 2.087524 g / cm^3
# Si number density = 20.922862 Si / 1000 Ang^3
#
#
#
# Elastic Constant Matrix: (Units=GPa)
#
#
# Indices 1 2 3 4 5 6 
#
# 1 50.3211 26.7332 49.9830 0.0000 0.0000 -1.9155
# 2 26.7332 50.3211 49.9830 0.0000 0.0000 1.9155
# 3 49.9830 49.9830 238.5706 0.0000 0.0000 0.0000
# 4 0.0000 0.0000 0.0000 30.7197 0.0000 0.0000
# 5 0.0000 0.0000 0.0000 0.0000 30.7197 0.0000
# 6 -1.9155 1.9155 0.0000 0.0000 0.0000 23.4108
#
#
#
# Elastic Compliance Matrix: (Units=1/GPa)
#
#
# Indices 1 2 3 4 5 6 
#
# 1 0.030394 -0.012572 -0.003734 0.000000 0.000000 0.003516
# 2 -0.012572 0.030394 -0.003734 0.000000 0.000000 -0.003516
# 3 -0.003734 -0.003734 0.005756 0.000000 0.000000 0.000000
# 4 0.000000 0.000000 0.000000 0.032552 0.000000 0.000000
# 5 0.000000 0.000000 0.000000 0.000000 0.032552 0.000000
# 6 0.003516 -0.003516 0.000000 0.000000 0.000000 0.043291
#
#
# Mechanical properties :
#
#
# Convention : Reuss Voigt Hill
#
# Bulk Modulus (GPa) = 37.78624 65.84568 51.81596
# Shear Modulus (GPa) = 22.33740 31.13762 26.73751
#
# Velocity S-wave (km/s) = 3.27097 3.86192 3.57866
# Velocity P-wave (km/s) = 5.68899 7.17111 6.47262
#
# Compressibility (1/GPa) = 0.02646466
#
# Stress axis : x y z
#
# Youngs Moduli (GPa) = 32.90149 32.90149 173.72546
#
# Poissons Ratio (x) = 0.41363 0.64867
# Poissons Ratio (y) = 0.41363 0.64867
# Poissons Ratio (z) = 0.12285 0.12285
#
# Static dielectric constant tensor:
#      x y z
#    x 1.751770 0.000000 0.000000 
#    y 0.000000 1.751770 0.000000 
#    z 0.000000 0.000000 1.854700 
# 
# From -- ./inp_files/2122.got.cif
#   From: 2010.05.17/outbox.cif.g08.bks.cpg/sg83_2_cif.got.tgz:2122.got - 2010.06.03 18:55:12.
