data_PCOD9543926
_publ_section_title
;
Structure prediction by ZEFSAII (Michael W. Deem and Ramdas Pophale) SiO2 
 PCOD9543926
Probable space group: P 4/M
;
_chemical_formula_sum "Si O2"
_cell_formula_units_Z 44
_cell_length_a 15.000000
_cell_length_b 15.000000
_cell_length_c 12.000000
_cell_angle_alpha 90.000000
_cell_angle_beta 90.000000
_cell_angle_gamma 90.000000
_cell_volume 2700.000000
_symmetry_space_group_name_H-M "P 4/M"
_symmetry_group_IT_number 83
_symmetry_cell_setting 'tetragonal'
loop_
_space_group_symop_operation_xyz
x,y,z
-y,x,z
-x,-y,z
y,-x,z
-x,-y,-z
y,-x,-z
x,y,-z
-y,x,-z
loop_
_atom_site_type_symbol
_atom_site_label
_atom_site_fract_x
_atom_site_fract_y
_atom_site_fract_z
Si Si1 0.489595 0.348658 0.500000
Si Si2 0.656790 0.315281 0.133950
Si Si3 0.516000 0.735409 0.744136
Si Si4 0.902115 0.458424 0.127713
Si Si5 0.778114 0.146619 0.864686
Si Si6 0.747238 0.947403 0.133490
O O1 0.580122 0.408046 0.500000
O O2 0.485607 0.291367 0.614359
O O3 0.559757 0.317655 0.188631
O O4 0.711888 0.391045 0.196715
O O5 0.702801 0.220035 0.158716
O O6 0.655957 0.327804 0.000000
O O7 0.501560 0.838180 0.778668
O O8 0.913293 0.353206 0.146841
O O9 0.000000 0.500000 0.130412
O O10 0.866713 0.473139 0.000000
O O11 0.872871 0.184635 0.823899
O O12 0.758663 0.047447 0.822688
O O13 0.781604 0.142731 0.000000
O O14 0.761222 0.952399 0.000000
#
# Coordination Sequence:
#
# PCOD9543926 Si02
#       6
#     4   8   8   8   8   8
#     4  11  24  44  57  72 104 152 196 235 283 334
#     4  11  21  33  52  81 111 136 176 231 281 335
#     4  12  22  37  57  78 106 146 189 226 277 333
#     4  10  19  33  54  83 115 145 178 223 291 352
#     4   9  17  29  45  71 108 144 177 210 259 325
#     4   9  16  27  44  68 105 146 176 210 257 323
#
# _framework density 16.296296000000002
#
# number of rings (size 3 to 8) (size 9 to 14) (size 15 to 20)
#    0.000    1.727    3.636    2.727    0.000    3.636 
#    0.000    3.182    0.000    0.000    0.000    0.000 
#    0.000    0.000    0.000    1.636    0.000    0.727 
#
# Total GULP energy -245246.760956 kJ/mol
# GULP energy per Si atom -5573.790022 kJ/mol
# Density = 1.625921 g / cm^3
# Si number density = 16.296296 Si / 1000 Ang^3
#
#
#
# Elastic Constant Matrix: (Units=GPa)
#
#
# Indices 1 2 3 4 5 6 
#
# 1 81.7296 19.3736 40.0740 0.0000 0.0000 -5.5057
# 2 19.3736 81.7296 40.0740 0.0000 0.0000 5.5057
# 3 40.0740 40.0740 100.0350 0.0000 0.0000 0.0000
# 4 0.0000 0.0000 0.0000 14.5127 0.0000 0.0000
# 5 0.0000 0.0000 0.0000 0.0000 14.5127 0.0000
# 6 -5.5057 5.5057 0.0000 0.0000 0.0000 19.6437
#
#
#
# Elastic Compliance Matrix: (Units=1/GPa)
#
#
# Indices 1 2 3 4 5 6 
#
# 1 0.015683 -0.001189 -0.005806 0.000000 0.000000 0.004729
# 2 -0.001189 0.015683 -0.005806 0.000000 0.000000 -0.004729
# 3 -0.005806 -0.005806 0.014648 0.000000 0.000000 0.000000
# 4 0.000000 0.000000 0.000000 0.068905 0.000000 0.000000
# 5 0.000000 0.000000 0.000000 0.000000 0.068905 0.000000
# 6 0.004729 -0.004729 0.000000 0.000000 0.000000 0.053558
#
#
# Mechanical properties :
#
#
# Convention : Reuss Voigt Hill
#
# Bulk Modulus (GPa) = 48.99308 51.39305 50.19306
# Shear Modulus (GPa) = 18.53299 20.66531 19.59915
#
# Velocity S-wave (km/s) = 3.37598 3.56490 3.47172
# Velocity P-wave (km/s) = 6.73242 6.96777 6.85110
#
# Compressibility (1/GPa) = 0.02041105
#
# Stress axis : x y z
#
# Youngs Moduli (GPa) = 63.76407 63.76407 68.26698
#
# Poissons Ratio (x) = 0.07583 0.39637
# Poissons Ratio (y) = 0.07583 0.39637
# Poissons Ratio (z) = 0.37022 0.37022
#
# Static dielectric constant tensor:
#      x y z
#    x 1.606490 0.000000 0.000000 
#    y 0.000000 1.606490 0.000000 
#    z 0.000000 0.000000 1.496780 
# 
# From -- ./inp_files/1723.got.cif
#   From: 2010.05.17/outbox.ucp.g08.bks.cvg/sg83_1_cif.got.tgz:1723.got - 2010.06.11 10:34:49.
