data_PCOD9544798
_publ_section_title
;
Structure prediction by ZEFSAII (Michael W. Deem and Ramdas Pophale) SiO2 
 PCOD9544798
Probable space group: P 4/N
;
_chemical_formula_sum "Si O2"
_cell_formula_units_Z 34
_cell_length_a 11.052116
_cell_length_b 11.052116
_cell_length_c 12.127927
_cell_angle_alpha 90.000000
_cell_angle_beta 90.000000
_cell_angle_gamma 90.000000
_cell_volume 1481.417406
_symmetry_space_group_name_H-M "P 4/N"
_symmetry_group_IT_number 85
_symmetry_cell_setting 'tetragonal'
loop_
_space_group_symop_operation_xyz
x,y,z
1/2-y,x,z
1/2-x,1/2-y,z
y,1/2-x,z
-x,-y,-z
1/2+y,-x,-z
1/2+x,1/2+y,-z
-y,1/2+x,-z
loop_
_atom_site_type_symbol
_atom_site_label
_atom_site_fract_x
_atom_site_fract_y
_atom_site_fract_z
Si Si1 0.936817 0.815406 0.775150
Si Si2 0.250000 0.750000 0.500000
Si Si3 0.076783 0.854331 0.988427
Si Si4 0.401521 0.387598 0.809185
Si Si5 0.436320 0.934054 0.398874
O O1 0.820531 0.897132 0.795383
O O2 0.983195 0.830403 0.652066
O O3 0.035684 0.854414 0.862143
O O4 0.363582 0.810442 0.431878
O O5 0.982120 0.906941 0.078806
O O6 0.209945 0.909463 0.992433
O O7 0.258047 0.412107 0.806703
O O8 0.438536 0.462196 0.699320
O O9 0.500000 0.000000 0.500000
#
# Coordination Sequence:
#
# PCOD9544798 Si02
#       5
#     8   2   8   8   8
#     4  11  24  42  67  99 138 184 234 294 366 440
#     4  12  28  48  76 108 142 192 248 312 388 450
#     4  11  24  42  69 106 147 191 241 296 358 435
#     4  11  24  43  69 100 139 187 236 294 365 439
#     4  12  26  47  71 100 138 182 242 307 369 444
#
# _framework density 22.950993
#
# number of rings (size 3 to 8) (size 9 to 14) (size 15 to 20)
#    0.000    0.706    0.000    7.059    0.000    8.471 
#    0.000    2.353    0.000    0.000    0.000    0.000 
#    0.000    0.000    0.000    0.000    0.000    0.000 
#
# Total GULP energy -189735.995719 kJ/mol
# GULP energy per Si atom -5580.470462 kJ/mol
# Density = 2.289876 g / cm^3
# Si number density = 22.950993 Si / 1000 Ang^3
#
#
#
# Elastic Constant Matrix: (Units=GPa)
#
#
# Indices 1 2 3 4 5 6 
#
# 1 53.0188 61.2035 56.6323 0.0000 0.0000 46.1860
# 2 61.2035 53.0188 56.6323 0.0000 0.0000 -46.1860
# 3 56.6323 56.6323 166.1946 0.0000 0.0000 0.0000
# 4 0.0000 0.0000 0.0000 47.2686 0.0000 0.0000
# 5 0.0000 0.0000 0.0000 0.0000 47.2686 0.0000
# 6 46.1860 -46.1860 0.0000 0.0000 0.0000 -24.9815
#
#
#
# Elastic Compliance Matrix: (Units=1/GPa)
#
#
# Indices 1 2 3 4 5 6 
#
# 1 0.009687 0.003536 -0.004506 0.000000 0.000000 0.011371
# 2 0.003536 0.009687 -0.004506 0.000000 0.000000 -0.011371
# 3 -0.004506 -0.004506 0.009088 0.000000 0.000000 0.000000
# 4 0.000000 0.000000 0.000000 0.021156 0.000000 0.000000
# 5 0.000000 0.000000 0.000000 0.000000 0.021156 0.000000
# 6 0.011371 -0.011371 0.000000 0.000000 0.000000 0.002015
#
#
# Mechanical properties :
#
#
# Convention : Reuss Voigt Hill
#
# Bulk Modulus (GPa) = 57.10909 69.01870 63.06390
# Shear Modulus (GPa) = 55.81918 20.42875 38.12396
#
# Velocity S-wave (km/s) = 4.93699 2.98670 4.08008
# Velocity P-wave (km/s) = 7.57862 6.48315 7.05219
#
# Compressibility (1/GPa) = 0.01751035
#
# Stress axis : x y z
#
# Youngs Moduli (GPa) = 103.23536 103.23536 110.03722
#
# Poissons Ratio (x) = -0.36507 0.49581
# Poissons Ratio (y) = -0.36507 0.49581
# Poissons Ratio (z) = 0.46516 0.46516
#
# Static dielectric constant tensor:
#      x y z
#    x 1.933860 0.000000 0.000000 
#    y 0.000000 1.933860 0.000000 
#    z 0.000000 0.000000 1.830170 
# 
# From -- ./inp_files/1480.got.cif
#   From: 2010.05.17/outbox.cif.g08.bks.cpg/sg85_cif.got.tgz:1480.got - 2010.06.03 19:01:16.
