data_PCOD9544460
_publ_section_title
;
Structure prediction by ZEFSAII (Michael W. Deem and Ramdas Pophale) SiO2 
 PCOD9544460
Probable space group: P 42/M
;
_chemical_formula_sum "Si O2"
_cell_formula_units_Z 22
_cell_length_a 5.524197
_cell_length_b 5.524197
_cell_length_c 29.513836
_cell_angle_alpha 90.000000
_cell_angle_beta 90.000000
_cell_angle_gamma 90.000000
_cell_volume 900.666428
_symmetry_space_group_name_H-M "P 42/M"
_symmetry_group_IT_number 84
_symmetry_cell_setting 'tetragonal'
loop_
_space_group_symop_operation_xyz
x,y,z
-y,x,1/2+z
-x,-y,z
y,-x,1/2+z
-x,-y,-z
y,-x,1/2-z
x,y,-z
-y,x,1/2-z
loop_
_atom_site_type_symbol
_atom_site_label
_atom_site_fract_x
_atom_site_fract_y
_atom_site_fract_z
Si Si1 0.249788 0.638690 0.099623
Si Si2 0.500000 0.500000 0.250000
Si Si3 0.149117 0.249983 0.500000
Si Si4 0.131675 0.249608 0.691224
O O1 0.500000 0.500000 0.108495
O O2 0.249962 0.706392 0.046898
O O3 0.247091 0.848367 0.136706
O O4 0.000000 0.500000 0.108617
O O5 0.704460 0.387419 0.216560
O O6 0.000000 0.500000 0.500000
O O7 0.000000 0.000000 0.500000
O O8 0.000000 0.500000 0.702547
O O9 0.000000 0.000000 0.703487
#
# Coordination Sequence:
#
# PCOD9544460 Si02
#       4
#     8   2   4   8
#     4  12  24  46  73 109 152 200 256 320 395 482
#     4  12  32  52  76 118 156 204 284 328 420 474
#     4  12  24  42  70 108 148 198 256 309 391 484
#     4  12  29  51  81 113 159 209 267 335 409 487
#
# _framework density 24.426355999999998
#
# number of rings (size 3 to 8) (size 9 to 14) (size 15 to 20)
#    0.000    0.000    1.818    7.636    5.091    0.000 
#    0.000    0.000    0.000    0.000    0.000    0.000 
#    0.000    0.000    0.000    0.000    0.000    0.000 
#
# Total GULP energy -123168.132275 kJ/mol
# GULP energy per Si atom -5598.551467 kJ/mol
# Density = 2.437076 g / cm^3
# Si number density = 24.426356 Si / 1000 Ang^3
#
#
#
# Elastic Constant Matrix: (Units=GPa)
#
#
# Indices 1 2 3 4 5 6 
#
# 1 157.5247 69.0631 22.6516 0.0000 0.0000 -3.6861
# 2 69.0631 157.5247 22.6516 0.0000 0.0000 3.6861
# 3 22.6516 22.6516 157.9979 0.0000 0.0000 0.0000
# 4 0.0000 0.0000 0.0000 -154.3677 0.0000 0.0000
# 5 0.0000 0.0000 0.0000 0.0000 -154.3677 0.0000
# 6 -3.6861 3.6861 0.0000 0.0000 0.0000 65.6643
#
#
#
# Elastic Compliance Matrix: (Units=1/GPa)
#
#
# Indices 1 2 3 4 5 6 
#
# 1 0.007951 -0.003407 -0.000651 0.000000 0.000000 0.000638
# 2 -0.003407 0.007951 -0.000651 0.000000 0.000000 -0.000638
# 3 -0.000651 -0.000651 0.006516 0.000000 0.000000 0.000000
# 4 0.000000 0.000000 0.000000 -0.006478 0.000000 0.000000
# 5 0.000000 0.000000 0.000000 0.000000 -0.006478 0.000000
# 6 0.000638 -0.000638 0.000000 0.000000 0.000000 0.015301
#
#
# Mechanical properties :
#
#
# Convention : Reuss Voigt Hill
#
# Bulk Modulus (GPa) = 76.93799 77.97557 77.45678
# Shear Modulus (GPa) = 129.82470 -24.70218 52.56126
#
# Velocity S-wave (km/s) = 7.29827 -3.18353 4.64381
# Velocity P-wave (km/s) = 10.12848 4.29870 7.78026
#
# Compressibility (1/GPa) = 0.01299748
#
# Stress axis : x y z
#
# Youngs Moduli (GPa) = 125.77817 125.77817 153.46900
#
# Poissons Ratio (x) = 0.42852 0.09997
# Poissons Ratio (y) = 0.42852 0.09997
# Poissons Ratio (z) = 0.08193 0.08193
#
# Static dielectric constant tensor:
#      x y z
#    x 1.826770 0.000000 0.000000 
#    y 0.000000 1.826770 0.000000 
#    z 0.000000 0.000000 7.449100 
# 
# From -- ./inp_files/5536.got.cif
#   From: 2010.05.17/outbox.cif.g08.bks.cpg/sg84_3_cif.got.tgz:5536.got - 2010.06.03 18:57:40.
