data_PCOD9544496
_publ_section_title
;
Structure prediction by ZEFSAII (Michael W. Deem and Ramdas Pophale) SiO2 
 PCOD9544496
Probable space group: P 4/N
;
_chemical_formula_sum "Si O2"
_cell_formula_units_Z 34
_cell_length_a 10.199129
_cell_length_b 10.199129
_cell_length_c 13.362210
_cell_angle_alpha 90.000000
_cell_angle_beta 90.000000
_cell_angle_gamma 90.000000
_cell_volume 1389.966913
_symmetry_space_group_name_H-M "P 4/N"
_symmetry_group_IT_number 85
_symmetry_cell_setting 'tetragonal'
loop_
_space_group_symop_operation_xyz
x,y,z
1/2-y,x,z
1/2-x,1/2-y,z
y,1/2-x,z
-x,-y,-z
1/2+y,-x,-z
1/2+x,1/2+y,-z
-y,1/2+x,-z
loop_
_atom_site_type_symbol
_atom_site_label
_atom_site_fract_x
_atom_site_fract_y
_atom_site_fract_z
Si Si1 0.543313 0.349203 0.665961
Si Si2 0.250000 0.250000 0.661550
Si Si3 0.621734 0.089714 0.965253
Si Si4 0.029270 0.217049 0.461725
Si Si5 0.122299 0.580690 0.261941
O O1 0.405104 0.274223 0.663189
O O2 0.572250 0.333059 0.546488
O O3 0.615745 0.238745 0.730276
O O4 0.502728 0.489409 0.711814
O O5 0.657393 0.050801 0.851726
O O6 0.579055 0.243157 0.972094
O O7 0.500000 0.000000 0.000000
O O8 0.146501 0.108449 0.469949
O O9 0.965290 0.217018 0.351538
#
# Coordination Sequence:
#
# PCOD9544496 Si02
#       5
#     8   2   8   8   8
#     4  10  18  36  61  99 129 177 224 270 340 437
#     4   8  12  28  52  80 128 166 212 260 304 392
#     4  11  27  52  76 108 148 191 260 333 382 443
#     4  11  21  38  61  98 144 180 222 276 337 437
#     4  11  23  39  71  92 132 182 231 286 364 422
#
# _framework density 24.461012
#
# number of rings (size 3 to 8) (size 9 to 14) (size 15 to 20)
#    0.000    1.412    4.706    2.118    3.294    0.471 
#    0.000    2.353    0.000    0.000    0.000    0.000 
#    0.000    0.000    0.000    0.000    0.000    0.000 
#
# Total GULP energy -189309.109365 kJ/mol
# GULP energy per Si atom -5567.914981 kJ/mol
# Density = 2.440534 g / cm^3
# Si number density = 24.461012 Si / 1000 Ang^3
#
#
#
# Elastic Constant Matrix: (Units=GPa)
#
#
# Indices 1 2 3 4 5 6 
#
# 1 104.4889 -7.3083 22.4423 0.0000 0.0000 -0.3449
# 2 -7.3083 104.4889 22.4423 0.0000 0.0000 0.3449
# 3 22.4423 22.4423 152.2992 0.0000 0.0000 0.0000
# 4 0.0000 0.0000 0.0000 35.4282 0.0000 0.0000
# 5 0.0000 0.0000 0.0000 0.0000 35.4282 0.0000
# 6 -0.3449 0.3449 0.0000 0.0000 0.0000 28.2663
#
#
#
# Elastic Compliance Matrix: (Units=1/GPa)
#
#
# Indices 1 2 3 4 5 6 
#
# 1 0.009994 0.001048 -0.001627 0.000000 0.000000 0.000109
# 2 0.001048 0.009994 -0.001627 0.000000 0.000000 -0.000109
# 3 -0.001627 -0.001627 0.007046 0.000000 0.000000 0.000000
# 4 0.000000 0.000000 0.000000 0.028226 0.000000 0.000000
# 5 0.000000 0.000000 0.000000 0.000000 0.028226 0.000000
# 6 0.000109 -0.000109 0.000000 0.000000 0.000000 0.035381
#
#
# Mechanical properties :
#
#
# Convention : Reuss Voigt Hill
#
# Bulk Modulus (GPa) = 44.20763 48.49216 46.34989
# Shear Modulus (GPa) = 38.22118 41.40458 39.81288
#
# Velocity S-wave (km/s) = 3.95718 4.11868 4.03874
# Velocity P-wave (km/s) = 6.24427 6.51808 6.38264
#
# Compressibility (1/GPa) = 0.02262053
#
# Stress axis : x y z
#
# Youngs Moduli (GPa) = 100.06482 100.06482 141.93381
#
# Poissons Ratio (x) = -0.10488 0.23093
# Poissons Ratio (y) = -0.10488 0.23093
# Poissons Ratio (z) = 0.16281 0.16281
#
# Static dielectric constant tensor:
#      x y z
#    x 1.970210 0.000000 0.000000 
#    y 0.000000 1.970210 0.000000 
#    z 0.000000 0.000000 2.042550 
# 
# From -- ./inp_files/1489.got.cif
#   From: 2010.05.17/outbox.cif.g08.bks.cpg/sg85_cif.got.tgz:1489.got - 2010.06.03 19:01:16.
