data_PCOD9544849
_publ_section_title
;
Structure prediction by ZEFSAII (Michael W. Deem and Ramdas Pophale) SiO2 
 PCOD9544849
Probable space group: P 4/N
;
_chemical_formula_sum "Si O2"
_cell_formula_units_Z 36
_cell_length_a 13.714328
_cell_length_b 13.714328
_cell_length_c 9.972547
_cell_angle_alpha 90.000000
_cell_angle_beta 90.000000
_cell_angle_gamma 90.000000
_cell_volume 1875.664488
_symmetry_space_group_name_H-M "P 4/N"
_symmetry_group_IT_number 85
_symmetry_cell_setting 'tetragonal'
loop_
_space_group_symop_operation_xyz
x,y,z
1/2-y,x,z
1/2-x,1/2-y,z
y,1/2-x,z
-x,-y,-z
1/2+y,-x,-z
1/2+x,1/2+y,-z
-y,1/2+x,-z
loop_
_atom_site_type_symbol
_atom_site_label
_atom_site_fract_x
_atom_site_fract_y
_atom_site_fract_z
Si Si1 0.750000 0.250000 0.200223
Si Si2 0.450906 0.056712 0.878618
Si Si3 0.744542 0.465569 0.728054
Si Si4 0.051263 0.464663 0.364124
Si Si5 0.745206 0.037728 0.053549
O O1 0.848172 0.257924 0.288937
O O2 0.757679 0.148402 0.111951
O O3 0.464708 0.167923 0.912954
O O4 0.509998 0.037767 0.746202
O O5 0.346582 0.008202 0.872814
O O6 0.500000 0.000000 0.000000
O O7 0.832434 0.518649 0.648979
O O8 0.643018 0.515645 0.683079
O O9 0.762037 0.468309 0.890993
O O10 0.000000 0.500000 0.500000
#
# Coordination Sequence:
#
# PCOD9544849 Si02
#       5
#     4   8   8   8   8
#     4  12  21  34  75 110 133 176 235 302 357 400
#     4  12  22  41  67 101 137 178 235 296 337 406
#     4  12  23  43  68 101 137 188 232 289 354 416
#     4  12  28  45  67 101 149 184 232 289 352 426
#     4  12  21  38  71 105 137 178 239 297 348 402
#
# _framework density 19.193199
#
# number of rings (size 3 to 8) (size 9 to 14) (size 15 to 20)
#    0.000    0.000    8.889    2.000    0.000    4.444 
#    0.000    2.222    0.000    2.667    0.000    0.000 
#    0.000    0.000    0.000    0.000    0.000    0.000 
#
# Total GULP energy -200806.837260 kJ/mol
# GULP energy per Si atom -5577.967702 kJ/mol
# Density = 1.914951 g / cm^3
# Si number density = 19.193199 Si / 1000 Ang^3
#
#
#
# Elastic Constant Matrix: (Units=GPa)
#
#
# Indices 1 2 3 4 5 6 
#
# 1 100.7099 30.2198 -3.0075 0.0000 0.0000 -7.3552
# 2 30.2198 100.7099 -3.0075 0.0000 0.0000 7.3552
# 3 -3.0075 -3.0075 61.9663 0.0000 0.0000 0.0000
# 4 0.0000 0.0000 0.0000 18.7962 0.0000 0.0000
# 5 0.0000 0.0000 0.0000 0.0000 18.7962 0.0000
# 6 -7.3552 7.3552 0.0000 0.0000 0.0000 36.8991
#
#
#
# Elastic Compliance Matrix: (Units=1/GPa)
#
#
# Indices 1 2 3 4 5 6 
#
# 1 0.011228 -0.003574 0.000372 0.000000 0.000000 0.002951
# 2 -0.003574 0.011228 0.000372 0.000000 0.000000 -0.002951
# 3 0.000372 0.000372 0.016174 0.000000 0.000000 0.000000
# 4 0.000000 0.000000 0.000000 0.053202 0.000000 0.000000
# 5 0.000000 0.000000 0.000000 0.000000 0.053202 0.000000
# 6 0.002951 -0.002951 0.000000 0.000000 0.000000 0.028277
#
#
# Mechanical properties :
#
#
# Convention : Reuss Voigt Hill
#
# Bulk Modulus (GPa) = 30.33108 34.64393 32.48751
# Shear Modulus (GPa) = 26.32083 30.84371 28.58227
#
# Velocity S-wave (km/s) = 3.70721 4.01311 3.86319
# Velocity P-wave (km/s) = 5.84482 6.28988 6.07143
#
# Compressibility (1/GPa) = 0.03296949
#
# Stress axis : x y z
#
# Youngs Moduli (GPa) = 89.05952 89.05952 61.82809
#
# Poissons Ratio (x) = 0.31827 -0.02297
# Poissons Ratio (y) = 0.31827 -0.02297
# Poissons Ratio (z) = -0.03309 -0.03309
#
# Static dielectric constant tensor:
#      x y z
#    x 1.645920 0.000000 0.000000 
#    y 0.000000 1.645920 0.000000 
#    z 0.000000 0.000000 1.654210 
# 
# From -- ./inp_files/830.got.cif
#   From: 2010.05.17/outbox.cif.g08.bks.cpg/sg85_cif.got.tgz:830.got - 2010.06.03 19:01:16.
