data_PCOD9544833
_publ_section_title
;
Structure prediction by ZEFSAII (Michael W. Deem and Ramdas Pophale) SiO2 
 PCOD9544833
Probable space group: P 4/N
;
_chemical_formula_sum "Si O2"
_cell_formula_units_Z 56
_cell_length_a 14.235498
_cell_length_b 14.235498
_cell_length_c 11.959064
_cell_angle_alpha 90.000000
_cell_angle_beta 90.000000
_cell_angle_gamma 90.000000
_cell_volume 2423.497184
_symmetry_space_group_name_H-M "P 4/N"
_symmetry_group_IT_number 85
_symmetry_cell_setting 'tetragonal'
loop_
_space_group_symop_operation_xyz
x,y,z
1/2-y,x,z
1/2-x,1/2-y,z
y,1/2-x,z
-x,-y,-z
1/2+y,-x,-z
1/2+x,1/2+y,-z
-y,1/2+x,-z
loop_
_atom_site_type_symbol
_atom_site_label
_atom_site_fract_x
_atom_site_fract_y
_atom_site_fract_z
Si Si1 0.338213 0.694954 0.793487
Si Si2 0.897385 0.699365 0.764250
Si Si3 0.584030 0.971404 0.328620
Si Si4 0.971365 0.440828 0.890333
Si Si5 0.199142 0.100088 0.987628
Si Si6 0.976522 0.282679 0.634207
Si Si7 0.178111 0.940303 0.392323
O O1 0.250000 0.750000 0.848723
O O2 0.415173 0.638296 0.868953
O O3 0.299186 0.610547 0.716518
O O4 0.384109 0.768772 0.706549
O O5 0.864510 0.806139 0.763597
O O6 0.940206 0.684642 0.887166
O O7 0.955036 0.682230 0.654574
O O8 0.522758 0.988116 0.215971
O O9 0.538233 0.877173 0.375435
O O10 0.696248 0.962225 0.319334
O O11 0.579326 0.067431 0.398853
O O12 0.000000 0.500000 0.000000
O O13 0.023351 0.340202 0.904216
O O14 0.305750 0.135370 0.975497
O O15 0.933764 0.270565 0.510054
#
# Coordination Sequence:
#
# PCOD9544833 Si02
#       7
#     8   8   8   8   8   8   8
#     4  11  26  47  71 106 146 195 247 302 378 456
#     4   9  21  38  63 102 139 175 236 299 365 444
#     4  11  26  46  70 107 148 191 255 308 370 460
#     4  11  26  46  76 104 146 193 250 313 379 437
#     4   9  20  39  68  96 132 183 235 293 374 437
#     4  11  26  46  72 107 149 196 246 310 381 446
#     4  12  24  41  77  99 150 189 247 307 381 450
#
# _framework density 23.107102999999999
#
# number of rings (size 3 to 8) (size 9 to 14) (size 15 to 20)
#    0.000    1.429    1.429    3.000   14.000    0.286 
#    0.000    0.000    6.286    0.000    0.000    0.000 
#    0.000    0.000    0.000    0.000    0.000    0.000 
#
# Total GULP energy -312818.452616 kJ/mol
# GULP energy per Si atom -5586.043797 kJ/mol
# Density = 2.305451 g / cm^3
# Si number density = 23.107103 Si / 1000 Ang^3
#
#
#
# Elastic Constant Matrix: (Units=GPa)
#
#
# Indices 1 2 3 4 5 6 
#
# 1 104.8690 40.7775 21.2112 0.0000 0.0000 6.7058
# 2 40.7775 104.8690 21.2112 0.0000 0.0000 -6.7058
# 3 21.2112 21.2112 56.1651 0.0000 0.0000 0.0000
# 4 0.0000 0.0000 0.0000 21.1241 0.0000 0.0000
# 5 0.0000 0.0000 0.0000 0.0000 21.1241 0.0000
# 6 6.7058 -6.7058 0.0000 0.0000 0.0000 53.9578
#
#
#
# Elastic Compliance Matrix: (Units=1/GPa)
#
#
# Indices 1 2 3 4 5 6 
#
# 1 0.011867 -0.004152 -0.002913 0.000000 0.000000 -0.001991
# 2 -0.004152 0.011867 -0.002913 0.000000 0.000000 0.001991
# 3 -0.002913 -0.002913 0.020005 0.000000 0.000000 0.000000
# 4 0.000000 0.000000 0.000000 0.047339 0.000000 0.000000
# 5 0.000000 0.000000 0.000000 0.000000 0.047339 0.000000
# 6 -0.001991 0.001991 0.000000 0.000000 0.000000 0.019028
#
#
# Mechanical properties :
#
#
# Convention : Reuss Voigt Hill
#
# Bulk Modulus (GPa) = 42.05129 48.03366 45.04248
# Shear Modulus (GPa) = 26.97874 31.42139 29.20006
#
# Velocity S-wave (km/s) = 3.42065 3.69157 3.55869
# Velocity P-wave (km/s) = 5.81714 6.24522 6.03497
#
# Compressibility (1/GPa) = 0.02378048
#
# Stress axis : x y z
#
# Youngs Moduli (GPa) = 84.26791 84.26791 49.98687
#
# Poissons Ratio (x) = 0.34991 0.14563
# Poissons Ratio (y) = 0.34991 0.14563
# Poissons Ratio (z) = 0.24551 0.24551
#
# Static dielectric constant tensor:
#      x y z
#    x 1.901580 0.000000 0.000000 
#    y 0.000000 1.901580 0.000000 
#    z 0.000000 0.000000 1.888290 
# 
# From -- ./inp_files/1751.got.cif
#   From: 2010.05.17/outbox.cif.g08.bks.cpg/sg85_cif.got.tgz:1751.got - 2010.06.03 19:01:16.
