data_PCOD9544567
_publ_section_title
;
Structure prediction by ZEFSAII (Michael W. Deem and Ramdas Pophale) SiO2 
 PCOD9544567
Probable space group: P 4/N
;
_chemical_formula_sum "Si O2"
_cell_formula_units_Z 56
_cell_length_a 14.395079
_cell_length_b 14.395079
_cell_length_c 12.505422
_cell_angle_alpha 90.000000
_cell_angle_beta 90.000000
_cell_angle_gamma 90.000000
_cell_volume 2591.352280
_symmetry_space_group_name_H-M "P 4/N"
_symmetry_group_IT_number 85
_symmetry_cell_setting 'tetragonal'
loop_
_space_group_symop_operation_xyz
x,y,z
1/2-y,x,z
1/2-x,1/2-y,z
y,1/2-x,z
-x,-y,-z
1/2+y,-x,-z
1/2+x,1/2+y,-z
-y,1/2+x,-z
loop_
_atom_site_type_symbol
_atom_site_label
_atom_site_fract_x
_atom_site_fract_y
_atom_site_fract_z
Si Si1 0.290612 0.398484 0.933550
Si Si2 0.899892 0.215193 0.478734
Si Si3 0.839068 0.188560 0.257517
Si Si4 0.071866 0.078370 0.262741
Si Si5 0.002569 0.743212 0.858905
Si Si6 0.407573 0.063380 0.508065
Si Si7 0.366783 0.484441 0.719599
O O1 0.187652 0.358958 0.950421
O O2 0.319592 0.429665 0.815543
O O3 0.292838 0.477720 0.023051
O O4 0.816458 0.141627 0.499943
O O5 0.913122 0.209008 0.351567
O O6 0.992920 0.177316 0.531671
O O7 0.750000 0.250000 0.276696
O O8 0.892770 0.217789 0.151500
O O9 0.813254 0.082376 0.275267
O O10 0.058290 0.170128 0.188329
O O11 0.153751 0.016705 0.214352
O O12 0.098391 0.102992 0.386129
O O13 0.974242 0.019753 0.260735
O O14 0.428890 0.130158 0.607779
O O15 0.500000 0.000000 0.500000
#
# Coordination Sequence:
#
# PCOD9544567 Si02
#       7
#     8   8   8   8   8   8   8
#     4  11  25  48  72  93 126 180 234 280 332 409
#     4  11  21  33  61  94 132 181 224 262 336 415
#     4  11  23  42  61 101 137 171 225 278 341 422
#     4  10  22  40  68  99 131 173 223 279 338 400
#     4  11  22  43  70  95 130 173 231 279 331 398
#     4  10  20  38  61  95 138 174 212 274 334 407
#     4  10  24  43  63 100 138 174 222 275 351 406
#
# _framework density 21.610337999999999
#
# number of rings (size 3 to 8) (size 9 to 14) (size 15 to 20)
#    0.000    1.429    7.143    0.000    4.000    3.143 
#    7.714    0.000    0.000    0.000    0.000    0.000 
#    0.000    0.000    0.000    0.000    0.000    0.000 
#
# Total GULP energy -312314.150091 kJ/mol
# GULP energy per Si atom -5577.038394 kJ/mol
# Density = 2.156115 g / cm^3
# Si number density = 21.610338 Si / 1000 Ang^3
#
#
#
# Elastic Constant Matrix: (Units=GPa)
#
#
# Indices 1 2 3 4 5 6 
#
# 1 57.4933 11.8941 19.9915 0.0000 0.0000 -3.1810
# 2 11.8941 57.4933 19.9915 0.0000 0.0000 3.1810
# 3 19.9915 19.9915 125.9918 0.0000 0.0000 0.0000
# 4 0.0000 0.0000 0.0000 33.1186 0.0000 0.0000
# 5 0.0000 0.0000 0.0000 0.0000 33.1186 0.0000
# 6 -3.1810 3.1810 0.0000 0.0000 0.0000 24.8717
#
#
#
# Elastic Compliance Matrix: (Units=1/GPa)
#
#
# Indices 1 2 3 4 5 6 
#
# 1 0.019095 -0.003233 -0.002517 0.000000 0.000000 0.002856
# 2 -0.003233 0.019095 -0.002517 0.000000 0.000000 -0.002856
# 3 -0.002517 -0.002517 0.008736 0.000000 0.000000 0.000000
# 4 0.000000 0.000000 0.000000 0.030195 0.000000 0.000000
# 5 0.000000 0.000000 0.000000 0.000000 0.030195 0.000000
# 6 0.002856 -0.002856 0.000000 0.000000 0.000000 0.040937
#
#
# Mechanical properties :
#
#
# Convention : Reuss Voigt Hill
#
# Bulk Modulus (GPa) = 32.90288 38.30361 35.60325
# Shear Modulus (GPa) = 28.58493 30.82853 29.70673
#
# Velocity S-wave (km/s) = 3.64090 3.78109 3.71165
# Velocity P-wave (km/s) = 5.73877 6.06838 5.90588
#
# Compressibility (1/GPa) = 0.03039248
#
# Stress axis : x y z
#
# Youngs Moduli (GPa) = 52.36861 52.36861 114.47219
#
# Poissons Ratio (x) = 0.16932 0.28811
# Poissons Ratio (y) = 0.16932 0.28811
# Poissons Ratio (z) = 0.13181 0.13181
#
# Static dielectric constant tensor:
#      x y z
#    x 1.821520 0.000000 0.000000 
#    y 0.000000 1.821520 0.000000 
#    z 0.000000 0.000000 1.868360 
# 
# From -- ./inp_files/1785.got.cif
#   From: 2010.05.17/outbox.cif.g08.bks.cpg/sg85_cif.got.tgz:1785.got - 2010.06.03 19:01:16.
