data_PCOD9544066
_publ_section_title
;
Structure prediction by ZEFSAII (Michael W. Deem and Ramdas Pophale) SiO2 
 PCOD9544066
Probable space group: P 42/M
;
_chemical_formula_sum "Si O2"
_cell_formula_units_Z 48
_cell_length_a 16.744838
_cell_length_b 16.744838
_cell_length_c 9.756523
_cell_angle_alpha 90.000000
_cell_angle_beta 90.000000
_cell_angle_gamma 90.000000
_cell_volume 2735.627578
_symmetry_space_group_name_H-M "P 42/M"
_symmetry_group_IT_number 84
_symmetry_cell_setting 'tetragonal'
loop_
_space_group_symop_operation_xyz
x,y,z
-y,x,1/2+z
-x,-y,z
y,-x,1/2+z
-x,-y,-z
y,-x,1/2-z
x,y,-z
-y,x,1/2-z
loop_
_atom_site_type_symbol
_atom_site_label
_atom_site_fract_x
_atom_site_fract_y
_atom_site_fract_z
Si Si1 0.555132 0.826360 0.162562
Si Si2 0.834764 0.597435 0.835317
Si Si3 0.995805 0.619504 0.342415
Si Si4 0.006971 0.806699 0.353019
Si Si5 0.169105 0.132414 0.652495
Si Si6 0.273101 0.245690 0.161060
O O1 0.482630 0.803773 0.261530
O O2 0.632840 0.770393 0.186039
O O3 0.574389 0.921001 0.189691
O O4 0.535696 0.820522 0.000000
O O5 0.920901 0.611751 0.760572
O O6 0.771134 0.669589 0.812178
O O7 0.845098 0.589199 0.000000
O O8 0.971801 0.598535 0.500000
O O9 0.019670 0.712321 0.343836
O O10 0.039044 0.835955 0.500000
O O11 0.048847 0.846833 0.225485
O O12 0.913315 0.820644 0.352343
O O13 0.201036 0.121782 0.500000
O O14 0.228316 0.181810 0.746235
O O15 0.260580 0.228418 0.000000
#
# Coordination Sequence:
#
# PCOD9544066 Si02
#       6
#     8   8   8   8   8   8
#     4  10  21  38  59  80 109 151 188 217 266 339
#     4  11  23  36  56  87 118 142 177 232 280 320
#     4  10  19  35  57  80 111 152 187 218 269 336
#     4  10  21  37  54  76 110 148 190 233 277 329
#     4  11  22  35  56  81 105 144 194 238 275 320
#     4  10  21  39  59  80 111 150 181 220 280 335
#
# _framework density 17.546249
#
# number of rings (size 3 to 8) (size 9 to 14) (size 15 to 20)
#    0.000    1.667    3.333    1.500    0.000    6.333 
#    0.000    1.667    0.000    0.500    0.000    3.500 
#    0.000    0.000    0.000    0.000    0.000    0.000 
#
# Total GULP energy -267588.705280 kJ/mol
# GULP energy per Si atom -5574.764693 kJ/mol
# Density = 1.750631 g / cm^3
# Si number density = 17.546249 Si / 1000 Ang^3
#
#
#
# Elastic Constant Matrix: (Units=GPa)
#
#
# Indices 1 2 3 4 5 6 
#
# 1 88.2770 25.4518 58.5195 0.0000 0.0000 21.2546
# 2 25.4518 88.2770 58.5195 0.0000 0.0000 -21.2546
# 3 58.5195 58.5195 104.9716 0.0000 0.0000 0.0000
# 4 0.0000 0.0000 0.0000 21.5460 0.0000 0.0000
# 5 0.0000 0.0000 0.0000 0.0000 21.5460 0.0000
# 6 21.2546 -21.2546 0.0000 0.0000 0.0000 67.2488
#
#
#
# Elastic Compliance Matrix: (Units=1/GPa)
#
#
# Indices 1 2 3 4 5 6 
#
# 1 0.020437 0.000190 -0.011499 0.000000 0.000000 -0.006399
# 2 0.000190 0.020437 -0.011499 0.000000 0.000000 0.006399
# 3 -0.011499 -0.011499 0.022347 0.000000 0.000000 0.000000
# 4 0.000000 0.000000 0.000000 0.046412 0.000000 0.000000
# 5 0.000000 0.000000 0.000000 0.000000 0.046412 0.000000
# 6 -0.006399 0.006399 0.000000 0.000000 0.000000 0.018915
#
#
# Mechanical properties :
#
#
# Convention : Reuss Voigt Hill
#
# Bulk Modulus (GPa) = 56.80322 62.94523 59.87422
# Shear Modulus (GPa) = 22.08052 31.33716 26.70884
#
# Velocity S-wave (km/s) = 3.55127 4.23066 3.90577
# Velocity P-wave (km/s) = 7.01848 7.73411 7.38497
#
# Compressibility (1/GPa) = 0.01760463
#
# Stress axis : x y z
#
# Youngs Moduli (GPa) = 48.93165 48.93165 44.74885
#
# Poissons Ratio (x) = -0.00927 0.51455
# Poissons Ratio (y) = -0.00927 0.51455
# Poissons Ratio (z) = 0.56265 0.56265
#
# Static dielectric constant tensor:
#      x y z
#    x 1.611360 0.000000 0.000000 
#    y 0.000000 1.611360 0.000000 
#    z 0.000000 0.000000 1.617260 
# 
# From -- ./inp_files/1014.got.cif
#   From: 2010.05.17/outbox.cif.g08.bks.cpg/sg84_1_cif.got.tgz:1014.got - 2010.06.03 18:57:40.
