data_PCOD9544854
_publ_section_title
;
Structure prediction by ZEFSAII (Michael W. Deem and Ramdas Pophale) SiO2 
 PCOD9544854
Probable space group: P 4/N
;
_chemical_formula_sum "Si O2"
_cell_formula_units_Z 40
_cell_length_a 14.800843
_cell_length_b 14.800843
_cell_length_c 7.404919
_cell_angle_alpha 90.000000
_cell_angle_beta 90.000000
_cell_angle_gamma 90.000000
_cell_volume 1622.158236
_symmetry_space_group_name_H-M "P 4/N"
_symmetry_group_IT_number 85
_symmetry_cell_setting 'tetragonal'
loop_
_space_group_symop_operation_xyz
x,y,z
1/2-y,x,z
1/2-x,1/2-y,z
y,1/2-x,z
-x,-y,-z
1/2+y,-x,-z
1/2+x,1/2+y,-z
-y,1/2+x,-z
loop_
_atom_site_type_symbol
_atom_site_label
_atom_site_fract_x
_atom_site_fract_y
_atom_site_fract_z
Si Si1 0.885044 0.694299 0.005014
Si Si2 0.941923 0.415537 0.070359
Si Si3 0.123558 0.322199 0.560450
Si Si4 0.353688 0.565781 0.425020
Si Si5 0.692419 0.156377 0.769659
O O1 0.864189 0.797304 0.951075
O O2 0.885983 0.683351 0.222643
O O3 0.979167 0.659340 0.933960
O O4 0.907149 0.429062 0.275928
O O5 0.859893 0.381322 0.944683
O O6 0.000000 0.500000 0.000000
O O7 0.131296 0.217023 0.506776
O O8 0.037619 0.368021 0.474277
O O9 0.338250 0.618563 0.610814
O O10 0.263465 0.587266 0.313821
O O11 0.750000 0.250000 0.791649
#
# Coordination Sequence:
#
# PCOD9544854 Si02
#       5
#     8   8   8   8   8
#     4   9  20  43  72 103 146 192 239 310 387 455
#     4  12  31  46  75 117 153 198 260 328 390 470
#     4   9  20  41  72 104 141 192 247 315 391 460
#     4  12  26  46  77 104 149 196 260 310 393 467
#     4  12  28  52  74 108 152 208 258 316 393 469
#
# _framework density 24.658508999999999
#
# number of rings (size 3 to 8) (size 9 to 14) (size 15 to 20)
#    0.000    1.200    4.000    1.200    8.400    4.800 
#    0.000    2.000    0.000    0.000    0.000    0.000 
#    0.000    0.000    0.000    0.000    0.000    0.000 
#
# Total GULP energy -223865.105120 kJ/mol
# GULP energy per Si atom -5596.627628 kJ/mol
# Density = 2.460239 g / cm^3
# Si number density = 24.658509 Si / 1000 Ang^3
#
#
#
# Elastic Constant Matrix: (Units=GPa)
#
#
# Indices 1 2 3 4 5 6 
#
# 1 52.4402 -1.2491 23.6822 0.0000 0.0000 -8.1143
# 2 -1.2491 52.4402 23.6822 0.0000 0.0000 8.1143
# 3 23.6822 23.6822 132.7185 0.0000 0.0000 0.0000
# 4 0.0000 0.0000 0.0000 -0.8231 0.0000 0.0000
# 5 0.0000 0.0000 0.0000 0.0000 -0.8231 0.0000
# 6 -8.1143 8.1143 0.0000 0.0000 0.0000 28.2846
#
#
#
# Elastic Compliance Matrix: (Units=1/GPa)
#
#
# Indices 1 2 3 4 5 6 
#
# 1 0.021896 0.001502 -0.004175 0.000000 0.000000 0.005851
# 2 0.001502 0.021896 -0.004175 0.000000 0.000000 -0.005851
# 3 -0.004175 -0.004175 0.009025 0.000000 0.000000 0.000000
# 4 0.000000 0.000000 0.000000 -1.214941 0.000000 0.000000
# 5 0.000000 0.000000 0.000000 0.000000 -1.214941 0.000000
# 6 0.005851 -0.005851 0.000000 0.000000 0.000000 0.038712
#
#
# Mechanical properties :
#
#
# Convention : Reuss Voigt Hill
#
# Bulk Modulus (GPa) = 25.56256 36.64770 31.10513
# Shear Modulus (GPa) = -2.16299 18.09327 7.96514
#
# Velocity S-wave (km/s) = -0.93759 2.71173 1.79922
# Velocity P-wave (km/s) = 3.03596 4.96981 4.11801
#
# Compressibility (1/GPa) = 0.03911971
#
# Stress axis : x y z
#
# Youngs Moduli (GPa) = 45.67071 45.67071 110.80670
#
# Poissons Ratio (x) = -0.06858 0.46262
# Poissons Ratio (y) = -0.06858 0.46262
# Poissons Ratio (z) = 0.19068 0.19068
#
# Static dielectric constant tensor:
#      x y z
#    x 1.970360 0.000000 0.000000 
#    y 0.000000 1.970360 0.000000 
#    z 0.000000 0.000000 2.099070 
# 
# From -- ./inp_files/911.got.cif
#   From: 2010.05.17/outbox.cif.g08.bks.cpg/sg85_cif.got.tgz:911.got - 2010.06.03 19:01:16.
