data_PCOD9544575
_publ_section_title
;
Structure prediction by ZEFSAII (Michael W. Deem and Ramdas Pophale) SiO2 
 PCOD9544575
Probable space group: P 4/N
;
_chemical_formula_sum "Si O2"
_cell_formula_units_Z 28
_cell_length_a 8.324028
_cell_length_b 8.324028
_cell_length_c 17.892767
_cell_angle_alpha 90.000000
_cell_angle_beta 90.000000
_cell_angle_gamma 90.000000
_cell_volume 1239.779844
_symmetry_space_group_name_H-M "P 4/N"
_symmetry_group_IT_number 85
_symmetry_cell_setting 'tetragonal'
loop_
_space_group_symop_operation_xyz
x,y,z
1/2-y,x,z
1/2-x,1/2-y,z
y,1/2-x,z
-x,-y,-z
1/2+y,-x,-z
1/2+x,1/2+y,-z
-y,1/2+x,-z
loop_
_atom_site_type_symbol
_atom_site_label
_atom_site_fract_x
_atom_site_fract_y
_atom_site_fract_z
Si Si1 0.250000 0.750000 0.500000
Si Si2 0.510806 0.177554 0.872628
Si Si3 0.250000 0.250000 0.633585
Si Si4 0.250000 0.750000 0.000000
Si Si5 0.559971 0.441139 0.623534
Si Si6 0.750000 0.250000 0.746910
Si Si7 0.750000 0.750000 0.614661
O O1 0.149322 0.628255 0.551012
O O2 0.439971 0.359054 0.870988
O O3 0.620333 0.165316 0.946259
O O4 0.625717 0.158345 0.801430
O O5 0.371564 0.405234 0.632471
O O6 0.650518 0.371883 0.696168
O O7 0.593861 0.629530 0.614779
#
# Coordination Sequence:
#
# PCOD9544575 Si02
#       7
#     2   8   2   2   8   4   2
#     4  10  24  50  76 110 144 198 248 314 368 442
#     4  10  22  38  67  95 135 184 231 287 356 429
#     4  12  28  49  76 104 140 201 240 306 368 453
#     4  10  20  42  60 102 136 170 232 286 348 418
#     4  11  26  45  73 104 146 187 248 302 374 428
#     4  10  24  42  62 100 136 184 240 302 356 434
#     4  12  28  49  72 108 144 189 240 318 368 437
#
# _framework density 22.584654
#
# number of rings (size 3 to 8) (size 9 to 14) (size 15 to 20)
#    0.000    1.429    0.000    4.286    8.000    5.714 
#    0.000    0.000    0.000    3.429    0.000    0.000 
#    0.000    0.000    0.000    0.000    0.000    0.000 
#
# Total GULP energy -155942.241783 kJ/mol
# GULP energy per Si atom -5569.365778 kJ/mol
# Density = 2.253325 g / cm^3
# Si number density = 22.584654 Si / 1000 Ang^3
#
#
#
# Elastic Constant Matrix: (Units=GPa)
#
#
# Indices 1 2 3 4 5 6 
#
# 1 109.3273 23.6514 24.9708 0.0000 0.0000 -3.7892
# 2 23.6514 109.3273 24.9708 0.0000 0.0000 3.7892
# 3 24.9708 24.9708 125.4196 0.0000 0.0000 0.0000
# 4 0.0000 0.0000 0.0000 27.8406 0.0000 0.0000
# 5 0.0000 0.0000 0.0000 0.0000 27.8406 0.0000
# 6 -3.7892 3.7892 0.0000 0.0000 0.0000 52.3470
#
#
#
# Elastic Compliance Matrix: (Units=1/GPa)
#
#
# Indices 1 2 3 4 5 6 
#
# 1 0.009937 -0.001810 -0.001618 0.000000 0.000000 0.000850
# 2 -0.001810 0.009937 -0.001618 0.000000 0.000000 -0.000850
# 3 -0.001618 -0.001618 0.008618 0.000000 0.000000 0.000000
# 4 0.000000 0.000000 0.000000 0.035919 0.000000 0.000000
# 5 0.000000 0.000000 0.000000 0.000000 0.035919 0.000000
# 6 0.000850 -0.000850 0.000000 0.000000 0.000000 0.019226
#
#
# Mechanical properties :
#
#
# Convention : Reuss Voigt Hill
#
# Bulk Modulus (GPa) = 54.34722 54.58449 54.46586
# Shear Modulus (GPa) = 36.82369 39.63769 38.23069
#
# Velocity S-wave (km/s) = 4.04229 4.19390 4.11880
# Velocity P-wave (km/s) = 6.77517 6.90457 6.84017
#
# Compressibility (1/GPa) = 0.01840021
#
# Stress axis : x y z
#
# Youngs Moduli (GPa) = 100.62962 100.62962 116.04155
#
# Poissons Ratio (x) = 0.18211 0.18778
# Poissons Ratio (y) = 0.18211 0.18778
# Poissons Ratio (z) = 0.16284 0.16284
#
# Static dielectric constant tensor:
#      x y z
#    x 1.807730 0.000000 0.000000 
#    y 0.000000 1.807730 0.000000 
#    z 0.000000 0.000000 1.853630 
# 
# From -- ./inp_files/2056.got.cif
#   From: 2010.05.17/outbox.cif.g08.bks.cpg/sg85_cif.got.tgz:2056.got - 2010.06.03 19:01:16.
