data_PCOD9544654
_publ_section_title
;
Structure prediction by ZEFSAII (Michael W. Deem and Ramdas Pophale) SiO2 
 PCOD9544654
Probable space group: P 4/N
;
_chemical_formula_sum "Si O2"
_cell_formula_units_Z 58
_cell_length_a 17.530522
_cell_length_b 17.530522
_cell_length_c 9.093103
_cell_angle_alpha 90.000000
_cell_angle_beta 90.000000
_cell_angle_gamma 90.000000
_cell_volume 2794.485154
_symmetry_space_group_name_H-M "P 4/N"
_symmetry_group_IT_number 85
_symmetry_cell_setting 'tetragonal'
loop_
_space_group_symop_operation_xyz
x,y,z
1/2-y,x,z
1/2-x,1/2-y,z
y,1/2-x,z
-x,-y,-z
1/2+y,-x,-z
1/2+x,1/2+y,-z
-y,1/2+x,-z
loop_
_atom_site_type_symbol
_atom_site_label
_atom_site_fract_x
_atom_site_fract_y
_atom_site_fract_z
Si Si1 0.302862 0.084812 0.743803
Si Si2 0.415637 0.036814 0.507628
Si Si3 0.746578 0.129136 0.966396
Si Si4 0.750000 0.750000 0.331083
Si Si5 0.381217 0.097482 0.042940
Si Si6 0.325973 0.351604 0.343586
Si Si7 0.507901 0.169590 0.838459
Si Si8 0.633165 0.052133 0.758700
O O1 0.374517 0.043680 0.665272
O O2 0.295967 0.168942 0.680769
O O3 0.224177 0.039018 0.730758
O O4 0.316478 0.094093 0.918611
O O5 0.409807 0.120637 0.432569
O O6 0.500000 0.000000 0.500000
O O7 0.362290 0.985919 0.400246
O O8 0.774512 0.060262 0.065441
O O9 0.683921 0.180480 0.051551
O O10 0.706571 0.096561 0.820854
O O11 0.366030 0.158478 0.171175
O O12 0.385028 0.016352 0.126137
O O13 0.454824 0.122687 0.950619
O O14 0.235863 0.352639 0.373302
O O15 0.563199 0.110705 0.758538
#
# Coordination Sequence:
#
# PCOD9544654 Si02
#       8
#     8   8   8   2   8   8   8   8
#     4  12  25  41  66  95 130 175 218 264 331 395
#     4  11  27  45  61  91 133 176 219 267 328 401
#     4   9  19  38  65  96 126 162 215 272 329 383
#     4  12  28  40  68  94 132 172 208 278 320 404
#     4  11  21  38  64  99 133 165 214 265 330 385
#     4  10  24  41  65  94 131 171 218 270 328 387
#     4  11  21  38  66  97 131 166 215 270 328 392
#     4  10  22  42  65  94 133 172 216 276 327 386
#
# _framework density 20.755165000000002
#
# number of rings (size 3 to 8) (size 9 to 14) (size 15 to 20)
#    0.000    1.379    2.759    2.069    3.862    1.103 
#    0.000    1.379    0.000    0.000    0.000    0.000 
#    0.000    0.000    0.000    0.000    0.000    0.000 
#
# Total GULP energy -323569.547058 kJ/mol
# GULP energy per Si atom -5578.785294 kJ/mol
# Density = 2.070793 g / cm^3
# Si number density = 20.755165 Si / 1000 Ang^3
#
#
#
# Elastic Constant Matrix: (Units=GPa)
#
#
# Indices 1 2 3 4 5 6 
#
# 1 92.2412 21.2823 18.8403 0.0000 0.0000 9.0621
# 2 21.2823 92.2412 18.8403 0.0000 0.0000 -9.0621
# 3 18.8403 18.8403 84.3297 0.0000 0.0000 0.0000
# 4 0.0000 0.0000 0.0000 22.8162 0.0000 0.0000
# 5 0.0000 0.0000 0.0000 0.0000 22.8162 0.0000
# 6 9.0621 -9.0621 0.0000 0.0000 0.0000 40.5195
#
#
#
# Elastic Compliance Matrix: (Units=1/GPa)
#
#
# Indices 1 2 3 4 5 6 
#
# 1 0.012230 -0.002716 -0.002126 0.000000 0.000000 -0.003343
# 2 -0.002716 0.012230 -0.002126 0.000000 0.000000 0.003343
# 3 -0.002126 -0.002126 0.012808 0.000000 0.000000 0.000000
# 4 0.000000 0.000000 0.000000 0.043829 0.000000 0.000000
# 5 0.000000 0.000000 0.000000 0.000000 0.043829 0.000000
# 6 -0.003343 0.003343 0.000000 0.000000 0.000000 0.026175
#
#
# Mechanical properties :
#
#
# Convention : Reuss Voigt Hill
#
# Bulk Modulus (GPa) = 42.85570 42.97088 42.91329
# Shear Modulus (GPa) = 28.93298 31.22032 30.07665
#
# Velocity S-wave (km/s) = 3.73770 3.88263 3.81086
# Velocity P-wave (km/s) = 6.27058 6.39128 6.33122
#
# Compressibility (1/GPa) = 0.02333412
#
# Stress axis : x y z
#
# Youngs Moduli (GPa) = 81.76375 81.76375 78.07630
#
# Poissons Ratio (x) = 0.22208 0.16596
# Poissons Ratio (y) = 0.22208 0.16596
# Poissons Ratio (z) = 0.17380 0.17380
#
# Static dielectric constant tensor:
#      x y z
#    x 1.755160 0.000000 0.000000 
#    y 0.000000 1.755160 0.000000 
#    z 0.000000 0.000000 1.765650 
# 
# From -- ./inp_files/1204.got.cif
#   From: 2010.05.17/outbox.cif.g08.bks.cpg/sg85_cif.got.tgz:1204.got - 2010.06.03 19:01:16.
