data_PCOD9544853
_publ_section_title
;
Structure prediction by ZEFSAII (Michael W. Deem and Ramdas Pophale) SiO2 
 PCOD9544853
Probable space group: P 4/N
;
_chemical_formula_sum "Si O2"
_cell_formula_units_Z 34
_cell_length_a 11.623108
_cell_length_b 11.623108
_cell_length_c 10.473095
_cell_angle_alpha 90.000000
_cell_angle_beta 90.000000
_cell_angle_gamma 90.000000
_cell_volume 1414.879940
_symmetry_space_group_name_H-M "P 4/N"
_symmetry_group_IT_number 85
_symmetry_cell_setting 'tetragonal'
loop_
_space_group_symop_operation_xyz
x,y,z
1/2-y,x,z
1/2-x,1/2-y,z
y,1/2-x,z
-x,-y,-z
1/2+y,-x,-z
1/2+x,1/2+y,-z
-y,1/2+x,-z
loop_
_atom_site_type_symbol
_atom_site_label
_atom_site_fract_x
_atom_site_fract_y
_atom_site_fract_z
Si Si1 0.436878 0.516070 0.132119
Si Si2 0.766239 0.555973 0.550470
Si Si3 0.750000 0.250000 0.000000
Si Si4 0.793374 0.562563 0.253907
Si Si5 0.700031 0.059205 0.795988
O O1 0.458593 0.646024 0.179498
O O2 0.501001 0.422810 0.216434
O O3 0.302350 0.487340 0.135932
O O4 0.500000 0.500000 0.000000
O O5 0.869172 0.649714 0.569841
O O6 0.782162 0.526343 0.401754
O O7 0.762499 0.447618 0.646939
O O8 0.661960 0.307446 0.101512
O O9 0.881867 0.668852 0.227286
#
# Coordination Sequence:
#
# PCOD9544853 Si02
#       5
#     8   8   2   8   8
#     4  12  27  43  69 101 137 189 234 289 351 428
#     4   9  18  41  73 100 126 172 234 292 339 415
#     4  12  28  44  60 102 152 188 228 318 372 428
#     4   9  22  45  73 102 136 178 233 290 348 421
#     4  12  25  45  68  97 141 184 237 290 360 421
#
# _framework density 24.030308999999999
#
# number of rings (size 3 to 8) (size 9 to 14) (size 15 to 20)
#    0.000    1.412    4.706    1.412    6.588    1.412 
#    0.000    0.000    0.000    0.000    0.000    0.000 
#    0.000    0.000    0.000    0.000    0.000    0.000 
#
# Total GULP energy -189381.201019 kJ/mol
# GULP energy per Si atom -5570.035324 kJ/mol
# Density = 2.397561 g / cm^3
# Si number density = 24.030309 Si / 1000 Ang^3
#
#
#
# Elastic Constant Matrix: (Units=GPa)
#
#
# Indices 1 2 3 4 5 6 
#
# 1 65.4358 43.5468 22.3490 0.0000 0.0000 -9.2933
# 2 43.5468 65.4358 22.3490 0.0000 0.0000 9.2933
# 3 22.3490 22.3490 100.2554 0.0000 0.0000 0.0000
# 4 0.0000 0.0000 0.0000 34.2515 0.0000 0.0000
# 5 0.0000 0.0000 0.0000 0.0000 34.2515 0.0000
# 6 -9.2933 9.2933 0.0000 0.0000 0.0000 19.5254
#
#
#
# Elastic Compliance Matrix: (Units=1/GPa)
#
#
# Indices 1 2 3 4 5 6 
#
# 1 0.043386 -0.033287 -0.002251 0.000000 0.000000 0.036493
# 2 -0.033287 0.043386 -0.002251 0.000000 0.000000 -0.036493
# 3 -0.002251 -0.002251 0.010978 0.000000 0.000000 0.000000
# 4 0.000000 0.000000 0.000000 0.029196 0.000000 0.000000
# 5 0.000000 0.000000 0.000000 0.000000 0.029196 0.000000
# 6 0.036493 -0.036493 0.000000 0.000000 0.000000 0.085954
#
#
# Mechanical properties :
#
#
# Convention : Reuss Voigt Hill
#
# Bulk Modulus (GPa) = 45.10339 45.29073 45.19706
# Shear Modulus (GPa) = 15.38157 27.13114 21.25636
#
# Velocity S-wave (km/s) = 2.53275 3.36376 2.97739
# Velocity P-wave (km/s) = 5.23098 5.82879 5.53796
#
# Compressibility (1/GPa) = 0.02217128
#
# Stress axis : x y z
#
# Youngs Moduli (GPa) = 23.04903 23.04903 91.08911
#
# Poissons Ratio (x) = 0.76722 0.20507
# Poissons Ratio (y) = 0.76722 0.20507
# Poissons Ratio (z) = 0.05189 0.05189
#
# Static dielectric constant tensor:
#      x y z
#    x 1.982510 0.000000 0.000000 
#    y 0.000000 1.982510 0.000000 
#    z 0.000000 0.000000 1.938740 
# 
# From -- ./inp_files/1422.got.cif
#   From: 2010.05.17/outbox.cif.g08.bks.cpg/sg85_cif.got.tgz:1422.got - 2010.06.03 19:01:16.
