data_PCOD9544365
_publ_section_title
;
Structure prediction by ZEFSAII (Michael W. Deem and Ramdas Pophale) SiO2 
 PCOD9544365
Probable space group: P 42/M
;
_chemical_formula_sum "Si O2"
_cell_formula_units_Z 48
_cell_length_a 8.572877
_cell_length_b 8.572877
_cell_length_c 28.617348
_cell_angle_alpha 90.000000
_cell_angle_beta 90.000000
_cell_angle_gamma 90.000000
_cell_volume 2103.209671
_symmetry_space_group_name_H-M "P 42/M"
_symmetry_group_IT_number 84
_symmetry_cell_setting 'tetragonal'
loop_
_space_group_symop_operation_xyz
x,y,z
-y,x,1/2+z
-x,-y,z
y,-x,1/2+z
-x,-y,-z
y,-x,1/2-z
x,y,-z
-y,x,1/2-z
loop_
_atom_site_type_symbol
_atom_site_label
_atom_site_fract_x
_atom_site_fract_y
_atom_site_fract_z
Si Si1 0.708763 0.675799 0.152674
Si Si2 0.816043 0.570549 0.500000
Si Si3 0.822757 0.052905 0.402423
Si Si4 0.463510 0.818123 0.102675
Si Si5 0.060481 0.685059 0.000000
Si Si6 0.814324 0.815953 0.249884
Si Si7 0.202175 0.677095 0.849913
O O1 0.769188 0.796703 0.112654
O O2 0.527429 0.706698 0.143615
O O3 0.755794 0.725964 0.204405
O O4 0.756169 0.500855 0.141485
O O5 0.760048 0.507464 0.549927
O O6 0.752253 0.755548 0.500000
O O7 0.000000 0.500000 0.500000
O O8 0.758118 0.014227 0.453290
O O9 0.713812 0.976958 0.362182
O O10 0.000000 0.000000 0.397542
O O11 0.280616 0.792469 0.112569
O O12 0.500000 0.000000 0.108230
O O13 0.000000 0.500000 0.000000
O O14 0.724954 0.769670 0.296743
O O15 0.998719 0.790558 0.257604
#
# Coordination Sequence:
#
# PCOD9544365 Si02
#       7
#     8   4   8   8   4   8   8
#     4  12  27  44  70 106 143 192 245 312 374 439
#     4  10  24  44  79 107 150 199 249 299 380 464
#     4  12  25  46  75 106 145 193 249 305 370 450
#     4  11  24  47  74 102 147 194 246 300 374 450
#     4  12  25  46  78 116 150 194 250 320 384 445
#     4  11  24  43  69  99 138 191 247 299 372 451
#     4  12  25  46  69 101 147 184 247 311 371 444
#
# _framework density 22.822263
#
# number of rings (size 3 to 8) (size 9 to 14) (size 15 to 20)
#    0.000    0.500    3.333    5.250    4.667    0.667 
#    0.000    2.500    0.000    0.000    0.000    0.000 
#    0.000    0.000    0.000    0.000    0.000    0.000 
#
# Total GULP energy -267780.131601 kJ/mol
# GULP energy per Si atom -5578.752742 kJ/mol
# Density = 2.277032 g / cm^3
# Si number density = 22.822263 Si / 1000 Ang^3
#
#
#
# Elastic Constant Matrix: (Units=GPa)
#
#
# Indices 1 2 3 4 5 6 
#
# 1 82.4662 38.6799 32.0642 0.0000 0.0000 0.7554
# 2 38.6799 82.4662 32.0642 0.0000 0.0000 -0.7554
# 3 32.0642 32.0642 148.1481 0.0000 0.0000 0.0000
# 4 0.0000 0.0000 0.0000 34.4877 0.0000 0.0000
# 5 0.0000 0.0000 0.0000 0.0000 34.4877 0.0000
# 6 0.7554 -0.7554 0.0000 0.0000 0.0000 45.2723
#
#
#
# Elastic Compliance Matrix: (Units=1/GPa)
#
#
# Indices 1 2 3 4 5 6 
#
# 1 0.016087 -0.006764 -0.002018 0.000000 0.000000 -0.000381
# 2 -0.006764 0.016087 -0.002018 0.000000 0.000000 0.000381
# 3 -0.002018 -0.002018 0.007623 0.000000 0.000000 0.000000
# 4 0.000000 0.000000 0.000000 0.028996 0.000000 0.000000
# 5 0.000000 0.000000 0.000000 0.000000 0.028996 0.000000
# 6 -0.000381 0.000381 0.000000 0.000000 0.000000 0.022101
#
#
# Mechanical properties :
#
#
# Convention : Reuss Voigt Hill
#
# Bulk Modulus (GPa) = 54.95203 57.63300 56.29252
# Shear Modulus (GPa) = 33.88549 36.86770 35.37659
#
# Velocity S-wave (km/s) = 3.85743 4.02360 3.94139
# Velocity P-wave (km/s) = 6.63101 6.84789 6.74032
#
# Compressibility (1/GPa) = 0.01819769
#
# Stress axis : x y z
#
# Youngs Moduli (GPa) = 62.16215 62.16215 131.17501
#
# Poissons Ratio (x) = 0.42049 0.26467
# Poissons Ratio (y) = 0.42049 0.26467
# Poissons Ratio (z) = 0.12543 0.12543
#
# Static dielectric constant tensor:
#      x y z
#    x 1.836170 0.000000 0.000000 
#    y 0.000000 1.836170 0.000000 
#    z 0.000000 0.000000 1.760490 
# 
# From -- ./inp_files/5884.got.cif
#   From: 2010.05.17/outbox.cif.g08.bks.cpg/sg84_3_cif.got.tgz:5884.got - 2010.06.03 18:57:40.
