data_PCOD9544778
_publ_section_title
;
Structure prediction by ZEFSAII (Michael W. Deem and Ramdas Pophale) SiO2 
 PCOD9544778
Probable space group: P 4/N
;
_chemical_formula_sum "Si O2"
_cell_formula_units_Z 50
_cell_length_a 8.891064
_cell_length_b 8.891064
_cell_length_c 31.587621
_cell_angle_alpha 90.000000
_cell_angle_beta 90.000000
_cell_angle_gamma 90.000000
_cell_volume 2497.033629
_symmetry_space_group_name_H-M "P 4/N"
_symmetry_group_IT_number 85
_symmetry_cell_setting 'tetragonal'
loop_
_space_group_symop_operation_xyz
x,y,z
1/2-y,x,z
1/2-x,1/2-y,z
y,1/2-x,z
-x,-y,-z
1/2+y,-x,-z
1/2+x,1/2+y,-z
-y,1/2+x,-z
loop_
_atom_site_type_symbol
_atom_site_label
_atom_site_fract_x
_atom_site_fract_y
_atom_site_fract_z
Si Si1 0.030059 0.376622 0.796674
Si Si2 0.040709 0.108804 0.124062
Si Si3 0.637174 0.522373 0.297873
Si Si4 0.083405 0.058976 0.958209
Si Si5 0.250000 0.250000 0.378922
Si Si6 0.085523 0.831216 0.619131
Si Si7 0.445578 0.090191 0.541071
O O1 0.053125 0.197379 0.799934
O O2 0.966117 0.401673 0.749424
O O3 0.937976 0.447271 0.834647
O O4 0.211440 0.049179 0.124200
O O5 0.970362 0.034847 0.082330
O O6 0.815341 0.556878 0.301296
O O7 0.596408 0.413282 0.335601
O O8 0.263788 0.046443 0.957531
O O9 0.000000 0.000000 0.000000
O O10 0.435921 0.229985 0.379345
O O11 0.250000 0.750000 0.612219
O O12 0.058723 0.950934 0.581440
O O13 0.450980 0.270542 0.541039
O O14 0.500000 0.000000 0.500000
#
# Coordination Sequence:
#
# PCOD9544778 Si02
#       7
#     8   8   8   8   2   8   8
#     4   9  19  38  64  93 124 169 220 274 331 404
#     4  11  24  41  58  87 130 173 219 276 335 402
#     4   9  18  39  69  97 135 178 229 282 345 420
#     4  11  24  41  64  94 125 164 216 276 336 405
#     4  12  28  44  72 108 140 180 232 296 332 420
#     4  12  26  47  72 105 145 187 233 289 359 421
#     4  11  27  45  71 102 138 184 233 289 350 421
#
# _framework density 20.023758000000001
#
# number of rings (size 3 to 8) (size 9 to 14) (size 15 to 20)
#    0.000    1.440    0.000    5.760    4.480    8.000 
#    8.640    0.000    0.000    0.000    0.000    0.000 
#    0.000    0.000    0.000    0.000    0.000    0.000 
#
# Total GULP energy -278675.037278 kJ/mol
# GULP energy per Si atom -5573.500746 kJ/mol
# Density = 1.997818 g / cm^3
# Si number density = 20.023758 Si / 1000 Ang^3
#
#
#
# Elastic Constant Matrix: (Units=GPa)
#
#
# Indices 1 2 3 4 5 6 
#
# 1 64.9157 50.1710 63.4550 0.0000 0.0000 -2.0432
# 2 50.1710 64.9157 63.4550 0.0000 0.0000 2.0432
# 3 63.4550 63.4550 172.6545 0.0000 0.0000 0.0000
# 4 0.0000 0.0000 0.0000 37.7037 0.0000 0.0000
# 5 0.0000 0.0000 0.0000 0.0000 37.7037 0.0000
# 6 -2.0432 2.0432 0.0000 0.0000 0.0000 28.7866
#
#
#
# Elastic Compliance Matrix: (Units=1/GPa)
#
#
# Indices 1 2 3 4 5 6 
#
# 1 0.041896 -0.027286 -0.005370 0.000000 0.000000 0.004910
# 2 -0.027286 0.041896 -0.005370 0.000000 0.000000 -0.004910
# 3 -0.005370 -0.005370 0.009739 0.000000 0.000000 0.000000
# 4 0.000000 0.000000 0.000000 0.026523 0.000000 0.000000
# 5 0.000000 0.000000 0.000000 0.000000 0.026523 0.000000
# 6 0.004910 -0.004910 0.000000 0.000000 0.000000 0.035435
#
#
# Mechanical properties :
#
#
# Convention : Reuss Voigt Hill
#
# Bulk Modulus (GPa) = 57.20502 72.96090 65.08296
# Shear Modulus (GPa) = 18.94731 29.19910 24.07320
#
# Velocity S-wave (km/s) = 3.07944 3.82281 3.47108
# Velocity P-wave (km/s) = 6.42453 7.48341 6.97409
#
# Compressibility (1/GPa) = 0.01748098
#
# Stress axis : x y z
#
# Youngs Moduli (GPa) = 23.86847 23.86847 102.68047
#
# Poissons Ratio (x) = 0.65127 0.55137
# Poissons Ratio (y) = 0.65127 0.55137
# Poissons Ratio (z) = 0.12817 0.12817
#
# Static dielectric constant tensor:
#      x y z
#    x 1.718370 0.000000 0.000000 
#    y 0.000000 1.718370 0.000000 
#    z 0.000000 0.000000 1.683990 
# 
# From -- ./inp_files/2459.got.cif
#   From: 2010.05.17/outbox.cif.g08.bks.cpg/sg85_cif.got.tgz:2459.got - 2010.06.03 19:01:16.
