data_PCOD9544306
_publ_section_title
;
Structure prediction by ZEFSAII (Michael W. Deem and Ramdas Pophale) SiO2 
 PCOD9544306
Probable space group: P 42/M
;
_chemical_formula_sum "Si O2"
_cell_formula_units_Z 18
_cell_length_a 5.086669
_cell_length_b 5.086669
_cell_length_c 29.261065
_cell_angle_alpha 90.000000
_cell_angle_beta 90.000000
_cell_angle_gamma 90.000000
_cell_volume 757.106692
_symmetry_space_group_name_H-M "P 42/M"
_symmetry_group_IT_number 84
_symmetry_cell_setting 'tetragonal'
loop_
_space_group_symop_operation_xyz
x,y,z
-y,x,1/2+z
-x,-y,z
y,-x,1/2+z
-x,-y,-z
y,-x,1/2-z
x,y,-z
-y,x,1/2-z
loop_
_atom_site_type_symbol
_atom_site_label
_atom_site_fract_x
_atom_site_fract_y
_atom_site_fract_z
Si Si1 0.500000 0.000000 0.189844
Si Si2 0.815316 0.748998 0.950747
Si Si3 0.500000 0.500000 0.130624
Si Si4 0.000000 0.000000 0.250000
O O1 0.398551 0.738262 0.162612
O O2 0.248930 0.085061 0.219543
O O3 0.657496 0.682809 0.905500
O O4 0.000000 0.500000 0.954700
O O5 0.670472 0.770820 0.000000
O O6 0.000000 0.000000 0.945295
#
# Coordination Sequence:
#
# PCOD9544306 Si02
#       4
#     4   8   4   2
#     4  12  28  46  81  98 148 176 249 298 390 440
#     4  10  22  40  64  99 149 193 235 293 354 421
#     4  12  25  41  72 110 132 196 238 313 341 462
#     4  12  28  56  68 112 134 192 224 320 388 464
#
# _framework density 23.774721
#
# number of rings (size 3 to 8) (size 9 to 14) (size 15 to 20)
#    0.000    0.889    0.000    6.000    9.333    0.000 
#    0.000    8.889    0.000    0.000    0.000    0.000 
#    0.000    0.000    0.000    0.000    0.000    0.000 
#
# Total GULP energy -100397.354168 kJ/mol
# GULP energy per Si atom -5577.630787 kJ/mol
# Density = 2.372061 g / cm^3
# Si number density = 23.774721 Si / 1000 Ang^3
#
#
#
# Elastic Constant Matrix: (Units=GPa)
#
#
# Indices 1 2 3 4 5 6 
#
# 1 129.6319 14.1647 33.0389 0.0000 0.0000 -7.5356
# 2 14.1647 129.6319 33.0389 0.0000 0.0000 7.5356
# 3 33.0389 33.0389 104.8785 0.0000 0.0000 0.0000
# 4 0.0000 0.0000 0.0000 30.6533 0.0000 0.0000
# 5 0.0000 0.0000 0.0000 0.0000 30.6533 0.0000
# 6 -7.5356 7.5356 0.0000 0.0000 0.0000 49.6682
#
#
#
# Elastic Compliance Matrix: (Units=1/GPa)
#
#
# Indices 1 2 3 4 5 6 
#
# 1 0.008483 -0.000352 -0.002562 0.000000 0.000000 0.001341
# 2 -0.000352 0.008483 -0.002562 0.000000 0.000000 -0.001341
# 3 -0.002562 -0.002562 0.011149 0.000000 0.000000 0.000000
# 4 0.000000 0.000000 0.000000 0.032623 0.000000 0.000000
# 5 0.000000 0.000000 0.000000 0.000000 0.032623 0.000000
# 6 0.001341 -0.001341 0.000000 0.000000 0.000000 0.020540
#
#
# Mechanical properties :
#
#
# Convention : Reuss Voigt Hill
#
# Bulk Modulus (GPa) = 58.25724 58.29193 58.27459
# Shear Modulus (GPa) = 38.29252 41.12160 39.70706
#
# Velocity S-wave (km/s) = 4.01763 4.16340 4.09117
# Velocity P-wave (km/s) = 6.78814 6.90533 6.84699
#
# Compressibility (1/GPa) = 0.01716525
#
# Stress axis : x y z
#
# Youngs Moduli (GPa) = 117.87732 117.87732 89.69636
#
# Poissons Ratio (x) = 0.04150 0.22976
# Poissons Ratio (y) = 0.04150 0.22976
# Poissons Ratio (z) = 0.30195 0.30195
#
# Static dielectric constant tensor:
#      x y z
#    x 1.915030 0.000000 0.000000 
#    y 0.000000 1.915030 0.000000 
#    z 0.000000 0.000000 2.083850 
# 
# From -- ./inp_files/4610.got.cif
#   From: 2010.05.17/outbox.cif.g08.bks.cpg/sg84_3_cif.got.tgz:4610.got - 2010.06.03 18:57:40.
