data_PCOD9545263
_publ_section_title
;
Structure prediction by ZEFSAII (Michael W. Deem and Ramdas Pophale) SiO2 
 PCOD9545263
Probable space group: P 42/N
;
_chemical_formula_sum "Si O2"
_cell_formula_units_Z 32
_cell_length_a 11.820162
_cell_length_b 11.820162
_cell_length_c 9.821460
_cell_angle_alpha 90.000000
_cell_angle_beta 90.000000
_cell_angle_gamma 90.000000
_cell_volume 1372.217361
_symmetry_space_group_name_H-M "P 42/N"
_symmetry_group_IT_number 86
_space_group.IT_coordinate_system_code '2'
_symmetry_cell_setting 'tetragonal'
loop_
_space_group_symop_operation_xyz
x,y,z
-y,1/2+x,1/2+z
1/2-x,1/2-y,z
1/2+y,-x,1/2+z
-x,-y,-z
y,1/2-x,1/2-z
1/2+x,1/2+y,-z
1/2-y,x,1/2-z
loop_
_atom_site_type_symbol
_atom_site_label
_atom_site_fract_x
_atom_site_fract_y
_atom_site_fract_z
Si Si1 0.091825 0.994904 0.313709
Si Si2 0.417399 0.334631 0.761173
Si Si3 0.093216 0.816403 0.732204
Si Si4 0.931463 0.239633 0.978755
O O1 0.188785 0.952462 0.208024
O O2 0.167038 0.011498 0.447303
O O3 0.005476 0.891985 0.340574
O O4 0.013730 0.099409 0.275098
O O5 0.395594 0.202760 0.735657
O O6 0.483893 0.344320 0.903280
O O7 0.187033 0.632000 0.390995
O O8 0.190548 0.858604 0.631190
#
# Coordination Sequence:
#
# PCOD9545263 Si02
#       4
#     8   8   8   8
#     4  10  24  47  72 105 151 185 257 294 379 437
#     4  11  24  46  72 101 139 201 243 311 368 439
#     4  10  23  46  74 106 148 197 240 315 361 447
#     4  10  24  48  70 109 146 198 245 309 367 440
#
# _framework density 23.319921999999998
#
# number of rings (size 3 to 8) (size 9 to 14) (size 15 to 20)
#    1.500    0.250    2.500    0.750    0.000    4.500 
#   13.500    0.000    0.000    0.000    0.000    0.000 
#    0.000    0.000    0.000    0.000    0.000    0.000 
#
# Total GULP energy -178561.065472 kJ/mol
# GULP energy per Si atom -5580.033296 kJ/mol
# Density = 2.326684 g / cm^3
# Si number density = 23.319922 Si / 1000 Ang^3
#
#
#
# Elastic Constant Matrix: (Units=GPa)
#
#
# Indices 1 2 3 4 5 6 
#
# 1 90.7930 27.8284 4.5119 0.0000 0.0000 3.9077
# 2 27.8284 90.7930 4.5119 0.0000 0.0000 -3.9077
# 3 4.5119 4.5119 100.1779 0.0000 0.0000 0.0000
# 4 0.0000 0.0000 0.0000 14.7363 0.0000 0.0000
# 5 0.0000 0.0000 0.0000 0.0000 14.7363 0.0000
# 6 3.9077 -3.9077 0.0000 0.0000 0.0000 44.8863
#
#
#
# Elastic Compliance Matrix: (Units=1/GPa)
#
#
# Indices 1 2 3 4 5 6 
#
# 1 0.012257 -0.003798 -0.000381 0.000000 0.000000 -0.001398
# 2 -0.003798 0.012257 -0.000381 0.000000 0.000000 0.001398
# 3 -0.000381 -0.000381 0.010017 0.000000 0.000000 0.000000
# 4 0.000000 0.000000 0.000000 0.067860 0.000000 0.000000
# 5 0.000000 0.000000 0.000000 0.000000 0.067860 0.000000
# 6 -0.001398 0.001398 0.000000 0.000000 0.000000 0.022522
#
#
# Mechanical properties :
#
#
# Convention : Reuss Voigt Hill
#
# Bulk Modulus (GPa) = 39.35316 39.49649 39.42483
# Shear Modulus (GPa) = 23.76848 31.19925 27.48386
#
# Velocity S-wave (km/s) = 3.19601 3.66167 3.43674
# Velocity P-wave (km/s) = 5.52551 5.90345 5.71760
#
# Compressibility (1/GPa) = 0.02541092
#
# Stress axis : x y z
#
# Youngs Moduli (GPa) = 81.58403 81.58403 99.83470
#
# Poissons Ratio (x) = 0.30987 0.03804
# Poissons Ratio (y) = 0.30987 0.03804
# Poissons Ratio (z) = 0.03108 0.03108
#
# Static dielectric constant tensor:
#      x y z
#    x 1.885530 0.000000 0.000000 
#    y 0.000000 1.885530 0.000000 
#    z 0.000000 0.000000 1.914140 
# 
# From -- ./inp_files/1912.got.cif
#   From: 2010.05.17/outbox.cif.g08.bks.cpg/sg86_1_cif.got.tgz:1912.got - 2010.06.03 19:03:11.
