data_PCOD9545096
_publ_section_title
;
Structure prediction by ZEFSAII (Michael W. Deem and Ramdas Pophale) SiO2 
 PCOD9545096
Probable space group: P 42/N
;
_chemical_formula_sum "Si O2"
_cell_formula_units_Z 42
_cell_length_a 15.365229
_cell_length_b 15.365229
_cell_length_c 9.342339
_cell_angle_alpha 90.000000
_cell_angle_beta 90.000000
_cell_angle_gamma 90.000000
_cell_volume 2205.635264
_symmetry_space_group_name_H-M "P 42/N"
_symmetry_group_IT_number 86
_space_group.IT_coordinate_system_code '2'
_symmetry_cell_setting 'tetragonal'
loop_
_space_group_symop_operation_xyz
x,y,z
-y,1/2+x,1/2+z
1/2-x,1/2-y,z
1/2+y,-x,1/2+z
-x,-y,-z
y,1/2-x,1/2-z
1/2+x,1/2+y,-z
1/2-y,x,1/2-z
loop_
_atom_site_type_symbol
_atom_site_label
_atom_site_fract_x
_atom_site_fract_y
_atom_site_fract_z
Si Si1 0.512426 0.908769 0.425865
Si Si2 0.750000 0.750000 0.750000
Si Si3 0.555870 0.407412 0.337266
Si Si4 0.232308 0.052738 0.167245
Si Si5 0.973339 0.622235 0.945695
Si Si6 0.649408 0.851094 0.217517
O O1 0.433791 0.899451 0.311807
O O2 0.525918 0.835592 0.545247
O O3 0.599099 0.910338 0.330046
O O4 0.500000 0.000000 0.500000
O O5 0.842179 0.749678 0.663742
O O6 0.511279 0.314159 0.345926
O O7 0.469757 0.467099 0.362646
O O8 0.619725 0.437392 0.464276
O O9 0.194293 0.036843 0.325562
O O10 0.896551 0.632783 0.064527
O O11 0.751937 0.866465 0.229553
#
# Coordination Sequence:
#
# PCOD9545096 Si02
#       6
#     8   2   8   8   8   8
#     4  11  22  39  58  90 122 164 207 246 311 387
#     4  12  24  32  60 110 132 148 200 250 352 376
#     4  10  22  41  58  89 121 165 214 245 317 376
#     4  12  23  39  67  93 130 162 204 273 309 388
#     4  10  21  38  60  86 127 170 203 253 307 383
#     4  10  23  35  56  93 132 157 192 250 323 378
#
# _framework density 19.042133
#
# number of rings (size 3 to 8) (size 9 to 14) (size 15 to 20)
#    0.000    1.333    3.810    1.143    5.333    0.000 
#    0.000    0.000    0.000    3.429    0.000    0.000 
#    0.000    0.000    0.000    0.000    0.000    0.000 
#
# Total GULP energy -234277.964422 kJ/mol
# GULP energy per Si atom -5578.046772 kJ/mol
# Density = 1.899879 g / cm^3
# Si number density = 19.042133 Si / 1000 Ang^3
#
#
#
# Elastic Constant Matrix: (Units=GPa)
#
#
# Indices 1 2 3 4 5 6 
#
# 1 91.6254 45.7939 52.9746 0.0000 0.0000 -7.3245
# 2 45.7939 91.6254 52.9746 0.0000 0.0000 7.3245
# 3 52.9746 52.9746 140.7954 0.0000 0.0000 0.0000
# 4 0.0000 0.0000 0.0000 29.6802 0.0000 0.0000
# 5 0.0000 0.0000 0.0000 0.0000 29.6802 0.0000
# 6 -7.3245 7.3245 0.0000 0.0000 0.0000 32.3563
#
#
#
# Elastic Compliance Matrix: (Units=1/GPa)
#
#
# Indices 1 2 3 4 5 6 
#
# 1 0.016886 -0.006635 -0.003857 0.000000 0.000000 0.005324
# 2 -0.006635 0.016886 -0.003857 0.000000 0.000000 -0.005324
# 3 -0.003857 -0.003857 0.010005 0.000000 0.000000 0.000000
# 4 0.000000 0.000000 0.000000 0.033692 0.000000 0.000000
# 5 0.000000 0.000000 0.000000 0.000000 0.033692 0.000000
# 6 0.005324 -0.005324 0.000000 0.000000 0.000000 0.033317
#
#
# Mechanical properties :
#
#
# Convention : Reuss Voigt Hill
#
# Bulk Modulus (GPa) = 66.31874 69.72582 68.02228
# Shear Modulus (GPa) = 28.05813 29.83022 28.94417
#
# Velocity S-wave (km/s) = 3.84275 3.96224 3.90296
# Velocity P-wave (km/s) = 7.38864 7.59135 7.49068
#
# Compressibility (1/GPa) = 0.01507869
#
# Stress axis : x y z
#
# Youngs Moduli (GPa) = 59.22158 59.22158 99.95232
#
# Poissons Ratio (x) = 0.39295 0.38550
# Poissons Ratio (y) = 0.39295 0.38550
# Poissons Ratio (z) = 0.22841 0.22841
#
# Static dielectric constant tensor:
#      x y z
#    x 1.675980 0.000000 0.000000 
#    y 0.000000 1.675980 0.000000 
#    z 0.000000 0.000000 1.710660 
# 
# From -- ./inp_files/1167.got.cif
#   From: 2010.05.17/outbox.cif.g08.bks.cpg/sg86_1_cif.got.tgz:1167.got - 2010.06.03 19:03:11.
