data_PCOD9545016
_publ_section_title
;
Structure prediction by ZEFSAII (Michael W. Deem and Ramdas Pophale) SiO2 
 PCOD9545016
Probable space group: P 42/N
;
_chemical_formula_sum "Si O2"
_cell_formula_units_Z 46
_cell_length_a 15.180235
_cell_length_b 15.180235
_cell_length_c 8.625017
_cell_angle_alpha 90.000000
_cell_angle_beta 90.000000
_cell_angle_gamma 90.000000
_cell_volume 1987.544904
_symmetry_space_group_name_H-M "P 42/N"
_symmetry_group_IT_number 86
_space_group.IT_coordinate_system_code '2'
_symmetry_cell_setting 'tetragonal'
loop_
_space_group_symop_operation_xyz
x,y,z
-y,1/2+x,1/2+z
1/2-x,1/2-y,z
1/2+y,-x,1/2+z
-x,-y,-z
y,1/2-x,1/2-z
1/2+x,1/2+y,-z
1/2-y,x,1/2-z
loop_
_atom_site_type_symbol
_atom_site_label
_atom_site_fract_x
_atom_site_fract_y
_atom_site_fract_z
Si Si1 0.464970 0.547619 0.153594
Si Si2 0.568721 0.310124 0.387018
Si Si3 0.750000 0.250000 0.772579
Si Si4 0.047988 0.770295 0.284522
Si Si5 0.250000 0.250000 0.250000
Si Si6 0.012986 0.384011 0.898602
Si Si7 0.943876 0.699433 0.774696
O O1 0.455433 0.652845 0.156008
O O2 0.527526 0.536868 0.305800
O O3 0.372221 0.501656 0.184740
O O4 0.500000 0.500000 0.000000
O O5 0.657429 0.254747 0.360886
O O6 0.516607 0.289283 0.542707
O O7 0.602187 0.408473 0.422125
O O8 0.503060 0.288641 0.244032
O O9 0.847105 0.250109 0.694880
O O10 0.986334 0.693279 0.225726
O O11 0.285270 0.347969 0.200646
O O12 0.941000 0.655106 0.947236
#
# Coordination Sequence:
#
# PCOD9545016 Si02
#       7
#     8   8   4   8   2   8   8
#     4  12  26  47  74 103 146 191 245 312 381 447
#     4  11  21  41  72 103 145 182 232 301 371 441
#     4  10  20  38  68 108 148 178 230 290 378 442
#     4  11  24  41  68 106 141 186 231 302 372 447
#     4  12  32  44  76  94 152 204 268 294 376 460
#     4  11  26  43  71 103 144 181 244 301 371 442
#     4  12  26  50  72 106 142 201 253 309 369 454
#
# _framework density 23.144131000000002
#
# number of rings (size 3 to 8) (size 9 to 14) (size 15 to 20)
#    0.000    0.696    3.478    3.130    7.304    2.783 
#    0.000    0.000    0.000    2.087    0.000    0.000 
#    0.000    0.000    0.000    0.000    0.000    0.000 
#
# Total GULP energy -256103.032011 kJ/mol
# GULP energy per Si atom -5567.457218 kJ/mol
# Density = 2.309145 g / cm^3
# Si number density = 23.144131 Si / 1000 Ang^3
#
#
#
# Elastic Constant Matrix: (Units=GPa)
#
#
# Indices 1 2 3 4 5 6 
#
# 1 69.3356 -1.9588 -6.7147 0.0000 0.0000 -4.6554
# 2 -1.9588 69.3356 -6.7147 0.0000 0.0000 4.6554
# 3 -6.7147 -6.7147 76.1114 0.0000 0.0000 0.0000
# 4 0.0000 0.0000 0.0000 4.0324 0.0000 0.0000
# 5 0.0000 0.0000 0.0000 0.0000 4.0324 0.0000
# 6 -4.6554 4.6554 0.0000 0.0000 0.0000 31.6128
#
#
#
# Elastic Compliance Matrix: (Units=1/GPa)
#
#
# Indices 1 2 3 4 5 6 
#
# 1 0.014704 0.000403 0.001333 0.000000 0.000000 0.002106
# 2 0.000403 0.014704 0.001333 0.000000 0.000000 -0.002106
# 3 0.001333 0.001333 0.013374 0.000000 0.000000 0.000000
# 4 0.000000 0.000000 0.000000 0.247990 0.000000 0.000000
# 5 0.000000 0.000000 0.000000 0.000000 0.247990 0.000000
# 6 0.002106 -0.002106 0.000000 0.000000 0.000000 0.032253
#
#
# Mechanical properties :
#
#
# Convention : Reuss Voigt Hill
#
# Bulk Modulus (GPa) = 20.44146 20.44514 20.44330
# Shear Modulus (GPa) = 8.60310 23.28026 15.94168
#
# Velocity S-wave (km/s) = 1.93009 3.17500 2.62735
# Velocity P-wave (km/s) = 3.71731 4.72164 4.24925
#
# Compressibility (1/GPa) = 0.04892018
#
# Stress axis : x y z
#
# Youngs Moduli (GPa) = 68.00654 68.00654 74.77307
#
# Poissons Ratio (x) = -0.02741 -0.09966
# Poissons Ratio (y) = -0.02741 -0.09966
# Poissons Ratio (z) = -0.09064 -0.09064
#
# Static dielectric constant tensor:
#      x y z
#    x 1.973300 0.000000 0.000000 
#    y 0.000000 1.973300 0.000000 
#    z 0.000000 0.000000 1.934890 
# 
# From -- ./inp_files/2238.got.cif
#   From: 2010.05.17/outbox.cif.g08.bks.cpg/sg86_2_cif.got.tgz:2238.got - 2010.06.03 19:03:11.
