data_PCOD9545715
_publ_section_title
;
Structure prediction by ZEFSAII (Michael W. Deem and Ramdas Pophale) SiO2 
 PCOD9545715
Probable space group: I 4/M
;
_chemical_formula_sum "Si O2"
_cell_formula_units_Z 80
_cell_length_a 23.344106
_cell_length_b 23.344106
_cell_length_c 9.949233
_cell_angle_alpha 90.000000
_cell_angle_beta 90.000000
_cell_angle_gamma 90.000000
_cell_volume 5421.807511
_symmetry_space_group_name_H-M "I 4/M"
_symmetry_group_IT_number 87
_symmetry_cell_setting 'tetragonal'
loop_
_space_group_symop_operation_xyz
x,y,z
-y,x,z
-x,-y,z
y,-x,z
-x,-y,-z
y,-x,-z
x,y,-z
-y,x,-z
1/2+x,1/2+y,1/2+z
1/2-y,1/2+x,1/2+z
1/2-x,1/2-y,1/2+z
1/2+y,1/2-x,1/2+z
1/2-x,1/2-y,1/2-z
1/2+y,1/2-x,1/2-z
1/2+x,1/2+y,1/2-z
1/2-y,1/2+x,1/2-z
loop_
_atom_site_type_symbol
_atom_site_label
_atom_site_fract_x
_atom_site_fract_y
_atom_site_fract_z
Si Si1 0.991895 0.601349 0.000000
Si Si2 0.174927 0.503550 0.238553
Si Si3 0.618300 0.203433 0.657160
Si Si4 0.788046 0.206108 0.161332
Si Si5 0.772855 0.380201 0.839440
Si Si6 0.086613 0.510597 0.000000
O O1 0.981446 0.641369 0.126082
O O2 0.054413 0.571505 0.000000
O O3 0.953760 0.544536 0.000000
O O4 0.197992 0.439077 0.256503
O O5 0.218587 0.553501 0.197658
O O6 0.126295 0.505541 0.127492
O O7 0.602610 0.197432 0.500000
O O8 0.649579 0.264831 0.672214
O O9 0.666836 0.154573 0.685006
O O10 0.750000 0.250000 0.250000
O O11 0.774103 0.147661 0.239860
O O12 0.774013 0.204551 0.000000
O O13 0.760817 0.372940 0.000000
#
# Coordination Sequence:
#
# PCOD9545715 Si02
#       6
#     8  16  16  16  16   8
#     4  11  22  32  48  60  92 134 178 203 244 284
#     4  12  21  33  49  68  96 130 166 214 250 285
#     4   9  18  34  50  67  94 125 162 205 249 295
#     4   9  18  33  53  72  92 122 159 205 256 305
#     4  10  20  35  49  69  98 126 164 211 252 294
#     4  11  22  34  42  66  92 132 174 213 238 276
#
# _framework density 14.755227
#
# number of rings (size 3 to 8) (size 9 to 14) (size 15 to 20)
#    0.000    1.800    2.000    5.400    1.400    1.600 
#    9.000    0.000    0.000    0.000    0.000    0.000 
#    0.000    0.800    0.000    6.200    0.000    1.600 
#
# Total GULP energy -222758.788886 kJ/mol
# GULP energy per Si atom -5568.969722 kJ/mol
# Density = 1.472164 g / cm^3
# Si number density = 14.755227 Si / 1000 Ang^3
#
#
#
# Elastic Constant Matrix: (Units=GPa)
#
#
# Indices 1 2 3 4 5 6 
#
# 1 43.0953 16.5406 23.1812 0.0000 0.0000 0.0658
# 2 16.5406 43.0953 23.1812 0.0000 0.0000 -0.0658
# 3 23.1812 23.1812 109.7002 0.0000 0.0000 0.0000
# 4 0.0000 0.0000 0.0000 36.0467 0.0000 0.0000
# 5 0.0000 0.0000 0.0000 0.0000 36.0467 0.0000
# 6 0.0658 -0.0658 0.0000 0.0000 0.0000 26.2307
#
#
#
# Elastic Compliance Matrix: (Units=1/GPa)
#
#
# Indices 1 2 3 4 5 6 
#
# 1 0.028862 -0.008797 -0.004240 0.000000 0.000000 -0.000094
# 2 -0.008797 0.028862 -0.004240 0.000000 0.000000 0.000094
# 3 -0.004240 -0.004240 0.010908 0.000000 0.000000 0.000000
# 4 0.000000 0.000000 0.000000 0.027742 0.000000 0.000000
# 5 0.000000 0.000000 0.000000 0.000000 0.027742 0.000000
# 6 -0.000094 0.000094 0.000000 0.000000 0.000000 0.038124
#
#
# Mechanical properties :
#
#
# Convention : Reuss Voigt Hill
#
# Bulk Modulus (GPa) = 29.34515 35.74412 32.54464
# Shear Modulus (GPa) = 24.02101 28.53067 26.27584
#
# Velocity S-wave (km/s) = 4.03918 4.40204 4.22451
# Velocity P-wave (km/s) = 6.45635 7.07917 6.77492
#
# Compressibility (1/GPa) = 0.03407718
#
# Stress axis : x y z
#
# Youngs Moduli (GPa) = 34.64805 34.64805 91.67852
#
# Poissons Ratio (x) = 0.30480 0.38871
# Poissons Ratio (y) = 0.30480 0.38871
# Poissons Ratio (z) = 0.14691 0.14691
#
# Static dielectric constant tensor:
#      x y z
#    x 1.511250 0.000000 0.000000 
#    y 0.000000 1.511250 0.000000 
#    z 0.000000 0.000000 1.481060 
# 
# From -- ./inp_files/1265.got.cif
#   From: 2010.05.17/outbox.cif.g08.bks.cpg/sg87_1_cif.got.tgz:1265.got - 2010.06.03 19:07:00.
