data_PCOD9545214
_publ_section_title
;
Structure prediction by ZEFSAII (Michael W. Deem and Ramdas Pophale) SiO2 
 PCOD9545214
Probable space group: P 42/N
;
_chemical_formula_sum "Si O2"
_cell_formula_units_Z 60
_cell_length_a 11.590615
_cell_length_b 11.590615
_cell_length_c 20.633756
_cell_angle_alpha 90.000000
_cell_angle_beta 90.000000
_cell_angle_gamma 90.000000
_cell_volume 2771.987396
_symmetry_space_group_name_H-M "P 42/N"
_symmetry_group_IT_number 86
_space_group.IT_coordinate_system_code '2'
_symmetry_cell_setting 'tetragonal'
loop_
_space_group_symop_operation_xyz
x,y,z
-y,1/2+x,1/2+z
1/2-x,1/2-y,z
1/2+y,-x,1/2+z
-x,-y,-z
y,1/2-x,1/2-z
1/2+x,1/2+y,-z
1/2-y,x,1/2-z
loop_
_atom_site_type_symbol
_atom_site_label
_atom_site_fract_x
_atom_site_fract_y
_atom_site_fract_z
Si Si1 0.032181 0.132936 0.519428
Si Si2 0.141430 0.409392 0.123128
Si Si3 0.530742 0.294187 0.109076
Si Si4 0.536467 0.301242 0.765585
Si Si5 0.250000 0.750000 0.311222
Si Si6 0.324455 0.642766 0.012648
Si Si7 0.404368 0.439232 0.655567
Si Si8 0.882411 0.001983 0.858051
O O1 0.090433 0.173042 0.453424
O O2 0.100399 0.122719 0.585926
O O3 0.930392 0.227514 0.527168
O O4 0.000000 0.000000 0.500000
O O5 0.263198 0.434367 0.156422
O O6 0.073701 0.290391 0.127054
O O7 0.050530 0.510855 0.143493
O O8 0.639220 0.237388 0.144129
O O9 0.490483 0.417242 0.135206
O O10 0.573493 0.313648 0.034785
O O11 0.638190 0.230393 0.731895
O O12 0.457437 0.354228 0.709314
O O13 0.476153 0.219167 0.817525
O O14 0.594693 0.407184 0.802311
O O15 0.250000 0.750000 0.038966
O O16 0.368344 0.569383 0.073485
#
# Coordination Sequence:
#
# PCOD9545214 Si02
#       8
#     8   8   8   8   4   8   8   8
#     4   9  20  37  67 102 132 177 232 286 347 409
#     4  10  22  44  72 103 138 177 232 303 362 413
#     4  12  23  45  71 100 137 179 232 290 361 421
#     4  12  26  43  68  97 142 188 236 288 341 428
#     4  12  24  44  70  94 132 186 236 276 344 428
#     4  11  22  39  68 103 139 177 230 287 361 427
#     4  11  23  44  67 102 138 188 243 277 351 427
#     4  11  27  41  67 107 141 175 231 300 350 425
#
# _framework density 21.645118
#
# number of rings (size 3 to 8) (size 9 to 14) (size 15 to 20)
#    0.000    1.067    2.000    4.800    8.400    0.267 
#    0.000    0.000    5.867    0.000    0.000    0.000 
#    0.000    0.000    0.000    0.000    0.000    0.000 
#
# Total GULP energy -335109.619158 kJ/mol
# GULP energy per Si atom -5585.160319 kJ/mol
# Density = 2.159585 g / cm^3
# Si number density = 21.645118 Si / 1000 Ang^3
#
#
#
# Elastic Constant Matrix: (Units=GPa)
#
#
# Indices 1 2 3 4 5 6 
#
# 1 49.0075 29.5980 23.1212 0.0000 0.0000 -16.9168
# 2 29.5980 49.0075 23.1212 0.0000 0.0000 16.9168
# 3 23.1212 23.1212 90.6486 0.0000 0.0000 0.0000
# 4 0.0000 0.0000 0.0000 -29.2807 0.0000 0.0000
# 5 0.0000 0.0000 0.0000 0.0000 -29.2807 0.0000
# 6 -16.9168 16.9168 0.0000 0.0000 0.0000 4.2650
#
#
#
# Elastic Compliance Matrix: (Units=1/GPa)
#
#
# Indices 1 2 3 4 5 6 
#
# 1 0.003128 0.011840 -0.003818 0.000000 0.000000 -0.034554
# 2 0.011840 0.003128 -0.003818 0.000000 0.000000 0.034554
# 3 -0.003818 -0.003818 0.012979 0.000000 0.000000 0.000000
# 4 0.000000 0.000000 0.000000 -0.034152 0.000000 0.000000
# 5 0.000000 0.000000 0.000000 0.000000 -0.034152 0.000000
# 6 -0.034554 0.034554 0.000000 0.000000 0.000000 -0.039646
#
#
# Mechanical properties :
#
#
# Convention : Reuss Voigt Hill
#
# Bulk Modulus (GPa) = 36.17472 37.81602 36.99537
# Shear Modulus (GPa) = -56.87704 -3.33773 -30.10738
#
# Velocity S-wave (km/s) = -5.13168 -1.24313 -3.73360
# Velocity P-wave (km/s) = 4.28523 3.93044 1.20724
#
# Compressibility (1/GPa) = 0.02764361
#
# Stress axis : x y z
#
# Youngs Moduli (GPa) = 319.69071 319.69071 77.04682
#
# Poissons Ratio (x) = -3.78502 0.29414
# Poissons Ratio (y) = -3.78502 0.29414
# Poissons Ratio (z) = 1.22048 1.22048
#
# Static dielectric constant tensor:
#      x y z
#    x 1.845020 0.000000 0.000000 
#    y 0.000000 1.845020 0.000000 
#    z 0.000000 0.000000 1.780480 
# 
# From -- ./inp_files/4253.got.cif
#   From: 2010.05.17/outbox.cif.g08.bks.cpg/sg86_3_cif.got.tgz:4253.got - 2010.06.03 19:03:11.
