data_PCOD9545539
_publ_section_title
;
Structure prediction by ZEFSAII (Michael W. Deem and Ramdas Pophale) SiO2 
 PCOD9545539
Probable space group: I 4/M
;
_chemical_formula_sum "Si O2"
_cell_formula_units_Z 52
_cell_length_a 10.212039
_cell_length_b 10.212039
_cell_length_c 18.274683
_cell_angle_alpha 90.000000
_cell_angle_beta 90.000000
_cell_angle_gamma 90.000000
_cell_volume 1905.788850
_symmetry_space_group_name_H-M "I 4/M"
_symmetry_group_IT_number 87
_symmetry_cell_setting 'tetragonal'
loop_
_space_group_symop_operation_xyz
x,y,z
-y,x,z
-x,-y,z
y,-x,z
-x,-y,-z
y,-x,-z
x,y,-z
-y,x,-z
1/2+x,1/2+y,1/2+z
1/2-y,1/2+x,1/2+z
1/2-x,1/2-y,1/2+z
1/2+y,1/2-x,1/2+z
1/2-x,1/2-y,1/2-z
1/2+y,1/2-x,1/2-z
1/2+x,1/2+y,1/2-z
1/2-y,1/2+x,1/2-z
loop_
_atom_site_type_symbol
_atom_site_label
_atom_site_fract_x
_atom_site_fract_y
_atom_site_fract_z
Si Si1 0.713659 0.543517 0.261440
Si Si2 0.281822 0.132429 0.079095
Si Si3 0.500000 0.500000 0.904672
Si Si4 0.198188 0.425330 0.110966
O O1 0.596882 0.648072 0.246432
O O2 0.747216 0.559664 0.345832
O O3 0.820132 0.572662 0.199323
O O4 0.207405 0.274119 0.084975
O O5 0.441872 0.131316 0.081117
O O6 0.244140 0.076248 0.000000
O O7 0.653720 0.534638 0.905229
#
# Coordination Sequence:
#
# PCOD9545539 Si02
#       4
#    16  16   4  16
#     4  11  21  40  66  91 120 166 220 256 296 372
#     4  11  23  37  62  96 130 161 200 264 326 369
#     4   8  12  28  57  88 109 136 200 254 288 332
#     4  10  18  36  61  90 119 158 207 255 308 363
#
# _framework density 27.285291999999998
#
# number of rings (size 3 to 8) (size 9 to 14) (size 15 to 20)
#    0.000    1.538    6.154    1.846    0.000    1.231 
#    0.000    7.692    0.000    3.692    0.000    0.000 
#    0.000    0.000    0.000    0.000    0.000    0.000 
#
# Total GULP energy -144803.896099 kJ/mol
# GULP energy per Si atom -5569.380619 kJ/mol
# Density = 2.722319 g / cm^3
# Si number density = 27.285292 Si / 1000 Ang^3
#
#
#
# Elastic Constant Matrix: (Units=GPa)
#
#
# Indices 1 2 3 4 5 6 
#
# 1 67.1618 -21.5807 9.2412 0.0000 0.0000 20.2239
# 2 -21.5807 67.1618 9.2412 0.0000 0.0000 -20.2239
# 3 9.2412 9.2412 232.5872 0.0000 0.0000 0.0000
# 4 0.0000 0.0000 0.0000 14.0163 0.0000 0.0000
# 5 0.0000 0.0000 0.0000 0.0000 14.0163 0.0000
# 6 20.2239 -20.2239 0.0000 0.0000 0.0000 21.5189
#
#
#
# Elastic Compliance Matrix: (Units=1/GPa)
#
#
# Indices 1 2 3 4 5 6 
#
# 1 0.021005 0.001293 -0.000886 0.000000 0.000000 -0.018526
# 2 0.001293 0.021005 -0.000886 0.000000 0.000000 0.018526
# 3 -0.000886 -0.000886 0.004370 0.000000 0.000000 0.000000
# 4 0.000000 0.000000 0.000000 0.071345 0.000000 0.000000
# 5 0.000000 0.000000 0.000000 0.000000 0.071345 0.000000
# 6 -0.018526 0.018526 0.000000 0.000000 0.000000 0.081294
#
#
# Mechanical properties :
#
#
# Convention : Reuss Voigt Hill
#
# Bulk Modulus (GPa) = 22.01560 40.07938 31.04749
# Shear Modulus (GPa) = 17.45420 34.57759 26.01590
#
# Velocity S-wave (km/s) = 2.53196 3.56372 3.09119
# Velocity P-wave (km/s) = 4.07847 5.62622 4.91367
#
# Compressibility (1/GPa) = 0.04542233
#
# Stress axis : x y z
#
# Youngs Moduli (GPa) = 47.60678 47.60678 228.84003
#
# Poissons Ratio (x) = -0.06154 0.20274
# Poissons Ratio (y) = -0.06154 0.20274
# Poissons Ratio (z) = 0.04218 0.04218
#
# Static dielectric constant tensor:
#      x y z
#    x 2.109240 0.000000 0.000000 
#    y 0.000000 2.109240 0.000000 
#    z 0.000000 0.000000 2.261260 
# 
# From -- ./inp_files/4929.got.cif
#   From: 2010.05.17/outbox.cif.g08.bks.cpg/sg87_3_cif.got.tgz:4929.got - 2010.06.03 19:07:00.
