data_PCOD9545899
_publ_section_title
;
Structure prediction by ZEFSAII (Michael W. Deem and Ramdas Pophale) SiO2 
 PCOD9545899
Probable space group: I 4/M
;
_chemical_formula_sum "Si O2"
_cell_formula_units_Z 120
_cell_length_a 24.880839
_cell_length_b 24.880839
_cell_length_c 8.281495
_cell_angle_alpha 90.000000
_cell_angle_beta 90.000000
_cell_angle_gamma 90.000000
_cell_volume 5126.710406
_symmetry_space_group_name_H-M "I 4/M"
_symmetry_group_IT_number 87
_symmetry_cell_setting 'tetragonal'
loop_
_space_group_symop_operation_xyz
x,y,z
-y,x,z
-x,-y,z
y,-x,z
-x,-y,-z
y,-x,-z
x,y,-z
-y,x,-z
1/2+x,1/2+y,1/2+z
1/2-y,1/2+x,1/2+z
1/2-x,1/2-y,1/2+z
1/2+y,1/2-x,1/2+z
1/2-x,1/2-y,1/2-z
1/2+y,1/2-x,1/2-z
1/2+x,1/2+y,1/2-z
1/2-y,1/2+x,1/2-z
loop_
_atom_site_type_symbol
_atom_site_label
_atom_site_fract_x
_atom_site_fract_y
_atom_site_fract_z
Si Si1 0.576990 0.545799 0.500000
Si Si2 0.462860 0.294969 0.685872
Si Si3 0.010870 0.691724 0.317378
Si Si4 0.698721 0.671499 0.308407
Si Si5 0.919679 0.480510 0.315467
Si Si6 0.121737 0.683682 0.818061
Si Si7 0.144573 0.276926 0.815366
Si Si8 0.399412 0.392623 0.181374
O O1 0.517325 0.570195 0.500000
O O2 0.601563 0.566332 0.331552
O O3 0.474327 0.309282 0.500000
O O4 0.506266 0.252377 0.748650
O O5 0.409513 0.257697 0.689273
O O6 0.446092 0.347962 0.784371
O O7 0.991749 0.692835 0.500000
O O8 0.980693 0.643352 0.225889
O O9 0.073284 0.676306 0.303406
O O10 0.682877 0.666603 0.500000
O O11 0.757974 0.648600 0.292608
O O12 0.690105 0.733936 0.267061
O O13 0.656747 0.638707 0.201180
O O14 0.927551 0.464296 0.500000
O O15 0.958888 0.442977 0.209760
O O16 0.170941 0.643557 0.793702
O O17 0.099721 0.680760 0.000000
O O18 0.154277 0.294272 0.000000
O O19 0.405327 0.414587 0.000000
#
# Coordination Sequence:
#
# PCOD9545899 Si02
#       8
#     8  16  16  16  16  16  16  16
#     4  11  26  48  72 100 138 178 216 271 324 376
#     4  10  21  42  66  91 128 169 212 267 329 391
#     4  12  26  41  59  89 126 166 216 270 322 386
#     4   9  19  39  63  91 130 173 214 259 321 388
#     4  11  23  43  67  90 118 159 211 269 330 393
#     4  11  23  37  57  88 129 170 211 264 327 383
#     4   9  19  36  61  88 122 166 208 259 319 388
#     4  11  22  42  73 103 131 175 223 262 324 392
#
# _framework density 23.406824
#
# number of rings (size 3 to 8) (size 9 to 14) (size 15 to 20)
#    0.000    1.533    1.333    4.800    1.867    5.333 
#    0.000    0.667    0.000    0.000    0.000    0.000 
#    0.000    0.000    0.000    0.000    0.000    0.000 
#
# Total GULP energy -335635.742671 kJ/mol
# GULP energy per Si atom -5593.929045 kJ/mol
# Density = 2.335355 g / cm^3
# Si number density = 23.406824 Si / 1000 Ang^3
#
#
#
# Elastic Constant Matrix: (Units=GPa)
#
#
# Indices 1 2 3 4 5 6 
#
# 1 56.9706 -18.3618 9.4602 0.0000 0.0000 -5.3247
# 2 -18.3618 56.9706 9.4602 0.0000 0.0000 5.3247
# 3 9.4602 9.4602 96.5996 0.0000 0.0000 0.0000
# 4 0.0000 0.0000 0.0000 22.0016 0.0000 0.0000
# 5 0.0000 0.0000 0.0000 0.0000 22.0016 0.0000
# 6 -5.3247 5.3247 0.0000 0.0000 0.0000 19.1237
#
#
#
# Elastic Compliance Matrix: (Units=1/GPa)
#
#
# Indices 1 2 3 4 5 6 
#
# 1 0.020512 0.006694 -0.002664 0.000000 0.000000 0.003848
# 2 0.006694 0.020512 -0.002664 0.000000 0.000000 -0.003848
# 3 -0.002664 -0.002664 0.010874 0.000000 0.000000 0.000000
# 4 0.000000 0.000000 0.000000 0.045451 0.000000 0.000000
# 5 0.000000 0.000000 0.000000 0.000000 0.045451 0.000000
# 6 0.003848 -0.003848 0.000000 0.000000 0.000000 0.054434
#
#
# Mechanical properties :
#
#
# Convention : Reuss Voigt Hill
#
# Bulk Modulus (GPa) = 18.30517 23.51753 20.91135
# Shear Modulus (GPa) = 23.50571 26.62419 25.06495
#
# Velocity S-wave (km/s) = 3.17239 3.37628 3.27592
# Velocity P-wave (km/s) = 4.61044 5.02674 4.82308
#
# Compressibility (1/GPa) = 0.05462936
#
# Stress axis : x y z
#
# Youngs Moduli (GPa) = 48.75085 48.75085 91.96360
#
# Poissons Ratio (x) = -0.32634 0.24503
# Poissons Ratio (y) = -0.32634 0.24503
# Poissons Ratio (z) = 0.12989 0.12989
#
# Static dielectric constant tensor:
#      x y z
#    x 1.911110 0.000000 0.000000 
#    y 0.000000 1.911110 0.000000 
#    z 0.000000 0.000000 1.853970 
# 
# From -- ./inp_files/1691.got.cif
#   From: 2010.05.17/outbox.cif.g08.bks.cpg/sg87_1_cif.got.tgz:1691.got - 2010.06.03 19:07:00.
