data_PCOD9545453
_publ_section_title
;
Structure prediction by ZEFSAII (Michael W. Deem and Ramdas Pophale) SiO2 
 PCOD9545453
Probable space group: P 42/N
;
_chemical_formula_sum "Si O2"
_cell_formula_units_Z 22
_cell_length_a 5.393274
_cell_length_b 5.393274
_cell_length_c 31.048327
_cell_angle_alpha 90.000000
_cell_angle_beta 90.000000
_cell_angle_gamma 90.000000
_cell_volume 903.115245
_symmetry_space_group_name_H-M "P 42/N"
_symmetry_group_IT_number 86
_space_group.IT_coordinate_system_code '2'
_symmetry_cell_setting 'tetragonal'
loop_
_space_group_symop_operation_xyz
x,y,z
-y,1/2+x,1/2+z
1/2-x,1/2-y,z
1/2+y,-x,1/2+z
-x,-y,-z
y,1/2-x,1/2-z
1/2+x,1/2+y,-z
1/2-y,x,1/2-z
loop_
_atom_site_type_symbol
_atom_site_label
_atom_site_fract_x
_atom_site_fract_y
_atom_site_fract_z
Si Si1 0.250000 0.750000 0.695452
Si Si2 0.250000 0.250000 0.750000
Si Si3 0.095319 0.499338 0.048785
Si Si4 0.890802 0.494575 0.139781
O O1 0.199188 0.509851 0.724987
O O2 0.466989 0.655670 0.662994
O O3 0.250000 0.250000 0.053717
O O4 0.905661 0.488314 0.088069
O O5 0.250000 0.750000 0.054944
O O6 0.000000 0.500000 0.000000
O O7 0.750000 0.750000 0.149410
O O8 0.750000 0.250000 0.155229
#
# Coordination Sequence:
#
# PCOD9545453 Si02
#       4
#     4   2   8   8
#     4  12  30  58  82 126 160 216 274 346 428 498
#     4  12  32  52  88 116 164 208 276 352 420 508
#     4  12  24  43  70 110 161 211 271 329 392 477
#     4  12  27  49  81 116 161 212 270 334 409 489
#
# _framework density 24.360126999999999
#
# number of rings (size 3 to 8) (size 9 to 14) (size 15 to 20)
#    0.000    0.000    3.636    5.455    2.545    3.636 
#    0.000    0.000    0.000    0.000    0.000    0.000 
#    0.000    0.000    0.000    0.000    0.000    0.000 
#
# Total GULP energy -123114.514483 kJ/mol
# GULP energy per Si atom -5596.114295 kJ/mol
# Density = 2.430468 g / cm^3
# Si number density = 24.360127 Si / 1000 Ang^3
#
#
#
# Elastic Constant Matrix: (Units=GPa)
#
#
# Indices 1 2 3 4 5 6 
#
# 1 181.3029 81.4659 51.7718 0.0000 0.0000 -1.5035
# 2 81.4659 181.3029 51.7718 0.0000 0.0000 1.5035
# 3 51.7718 51.7718 133.5226 0.0000 0.0000 0.0000
# 4 0.0000 0.0000 0.0000 -18.7191 0.0000 0.0000
# 5 0.0000 0.0000 0.0000 0.0000 -18.7191 0.0000
# 6 -1.5035 1.5035 0.0000 0.0000 0.0000 67.5011
#
#
#
# Elastic Compliance Matrix: (Units=1/GPa)
#
#
# Indices 1 2 3 4 5 6 
#
# 1 0.007257 -0.002766 -0.001742 0.000000 0.000000 0.000223
# 2 -0.002766 0.007257 -0.001742 0.000000 0.000000 -0.000223
# 3 -0.001742 -0.001742 0.008840 0.000000 0.000000 0.000000
# 4 0.000000 0.000000 0.000000 -0.053421 0.000000 0.000000
# 5 0.000000 0.000000 0.000000 0.000000 -0.053421 0.000000
# 6 0.000223 -0.000223 0.000000 0.000000 0.000000 0.014825
#
#
# Mechanical properties :
#
#
# Convention : Reuss Voigt Hill
#
# Bulk Modulus (GPa) = 92.10557 96.23861 94.17209
# Shear Modulus (GPa) = -95.15419 26.75383 -34.20018
#
# Velocity S-wave (km/s) = -6.25670 3.31760 -3.75099
# Velocity P-wave (km/s) = 3.78192 7.36666 4.47016
#
# Compressibility (1/GPa) = 0.01085711
#
# Stress axis : x y z
#
# Youngs Moduli (GPa) = 137.78853 137.78853 113.12200
#
# Poissons Ratio (x) = 0.38106 0.19702
# Poissons Ratio (y) = 0.38106 0.19702
# Poissons Ratio (z) = 0.23999 0.23999
#
# Static dielectric constant tensor:
#      x y z
#    x 1.931580 0.000000 0.000000 
#    y 0.000000 1.931580 0.000000 
#    z 0.000000 0.000000 2.816170 
# 
# From -- ./inp_files/4971.got.cif
#   From: 2010.05.17/outbox.cif.g08.bks.cpg/sg86_3_cif.got.tgz:4971.got - 2010.06.03 19:03:11.
