data_PCOD9545299
_publ_section_title
;
Structure prediction by ZEFSAII (Michael W. Deem and Ramdas Pophale) SiO2 
 PCOD9545299
Probable space group: P 42/N
;
_chemical_formula_sum "Si O2"
_cell_formula_units_Z 34
_cell_length_a 7.860109
_cell_length_b 7.860109
_cell_length_c 21.991593
_cell_angle_alpha 90.000000
_cell_angle_beta 90.000000
_cell_angle_gamma 90.000000
_cell_volume 1358.669501
_symmetry_space_group_name_H-M "P 42/N"
_symmetry_group_IT_number 86
_space_group.IT_coordinate_system_code '2'
_symmetry_cell_setting 'tetragonal'
loop_
_space_group_symop_operation_xyz
x,y,z
-y,1/2+x,1/2+z
1/2-x,1/2-y,z
1/2+y,-x,1/2+z
-x,-y,-z
y,1/2-x,1/2-z
1/2+x,1/2+y,-z
1/2-y,x,1/2-z
loop_
_atom_site_type_symbol
_atom_site_label
_atom_site_fract_x
_atom_site_fract_y
_atom_site_fract_z
Si Si1 0.127116 0.048309 0.848617
Si Si2 0.925340 0.190553 0.949843
Si Si3 0.607343 0.101884 0.229418
Si Si4 0.070719 0.184776 0.068712
Si Si5 0.250000 0.250000 0.250000
O O1 0.076540 0.179656 0.901523
O O2 0.009400 0.090884 0.790720
O O3 0.314477 0.017265 0.823201
O O4 0.061365 0.872656 0.880049
O O5 0.750000 0.250000 0.920682
O O6 0.876155 0.993866 0.962861
O O7 0.978622 0.279274 0.012824
O O8 0.750000 0.250000 0.238249
O O9 0.417283 0.170669 0.217803
O O10 0.250000 0.250000 0.092106
#
# Coordination Sequence:
#
# PCOD9545299 Si02
#       5
#     8   8   8   8   2
#     4  10  24  45  69 106 154 207 251 339 396 488
#     4   9  20  44  70 107 154 199 261 328 398 479
#     4  12  25  48  74 107 160 207 270 327 400 497
#     4   9  21  43  72 108 147 203 259 325 402 467
#     4  12  28  52  76 108 152 212 268 332 404 494
#
# _framework density 25.024477999999998
#
# number of rings (size 3 to 8) (size 9 to 14) (size 15 to 20)
#    1.412    0.471    2.353    0.706    1.647    2.353 
#    4.235    0.000    0.000    0.000    0.000    0.000 
#    0.000    0.000    0.000    0.000    0.000    0.000 
#
# Total GULP energy -189462.180953 kJ/mol
# GULP energy per Si atom -5572.417087 kJ/mol
# Density = 2.496752 g / cm^3
# Si number density = 25.024478 Si / 1000 Ang^3
#
#
#
# Elastic Constant Matrix: (Units=GPa)
#
#
# Indices 1 2 3 4 5 6 
#
# 1 121.5528 36.5888 51.3838 0.0000 0.0000 -12.7794
# 2 36.5888 121.5528 51.3838 0.0000 0.0000 12.7794
# 3 51.3838 51.3838 160.4591 0.0000 0.0000 0.0000
# 4 0.0000 0.0000 0.0000 45.7350 0.0000 0.0000
# 5 0.0000 0.0000 0.0000 0.0000 45.7350 0.0000
# 6 -12.7794 12.7794 0.0000 0.0000 0.0000 47.9372
#
#
#
# Elastic Compliance Matrix: (Units=1/GPa)
#
#
# Indices 1 2 3 4 5 6 
#
# 1 0.010391 -0.002405 -0.002557 0.000000 0.000000 0.003411
# 2 -0.002405 0.010391 -0.002557 0.000000 0.000000 -0.003411
# 3 -0.002557 -0.002557 0.007870 0.000000 0.000000 0.000000
# 4 0.000000 0.000000 0.000000 0.021865 0.000000 0.000000
# 5 0.000000 0.000000 0.000000 0.000000 0.021865 0.000000
# 6 0.003411 -0.003411 0.000000 0.000000 0.000000 0.022679
#
#
# Mechanical properties :
#
#
# Convention : Reuss Voigt Hill
#
# Bulk Modulus (GPa) = 73.46569 75.80863 74.63716
# Shear Modulus (GPa) = 43.61605 45.49532 44.55568
#
# Velocity S-wave (km/s) = 4.17938 4.26847 4.22416
# Velocity P-wave (km/s) = 7.26022 7.39274 7.32678
#
# Compressibility (1/GPa) = 0.01361180
#
# Stress axis : x y z
#
# Youngs Moduli (GPa) = 96.24168 96.24168 127.06755
#
# Poissons Ratio (x) = 0.23149 0.32492
# Poissons Ratio (y) = 0.23149 0.32492
# Poissons Ratio (z) = 0.24610 0.24610
#
# Static dielectric constant tensor:
#      x y z
#    x 2.128490 0.000000 0.000000 
#    y 0.000000 2.128490 0.000000 
#    z 0.000000 0.000000 1.989330 
# 
# From -- ./inp_files/3985.got.cif
#   From: 2010.05.17/outbox.cif.g08.bks.cpg/sg86_2_cif.got.tgz:3985.got - 2010.06.03 19:03:11.
