data_PCOD9545275
_publ_section_title
;
Structure prediction by ZEFSAII (Michael W. Deem and Ramdas Pophale) SiO2 
 PCOD9545275
Probable space group: P 42/N
;
_chemical_formula_sum "Si O2"
_cell_formula_units_Z 36
_cell_length_a 12.357125
_cell_length_b 12.357125
_cell_length_c 9.747011
_cell_angle_alpha 90.000000
_cell_angle_beta 90.000000
_cell_angle_gamma 90.000000
_cell_volume 1488.354332
_symmetry_space_group_name_H-M "P 42/N"
_symmetry_group_IT_number 86
_space_group.IT_coordinate_system_code '2'
_symmetry_cell_setting 'tetragonal'
loop_
_space_group_symop_operation_xyz
x,y,z
-y,1/2+x,1/2+z
1/2-x,1/2-y,z
1/2+y,-x,1/2+z
-x,-y,-z
y,1/2-x,1/2-z
1/2+x,1/2+y,-z
1/2-y,x,1/2-z
loop_
_atom_site_type_symbol
_atom_site_label
_atom_site_fract_x
_atom_site_fract_y
_atom_site_fract_z
Si Si1 0.435561 0.888709 0.311326
Si Si2 0.989299 0.277490 0.235396
Si Si3 0.579464 0.841916 0.045213
Si Si4 0.892140 0.685688 0.496533
Si Si5 0.750000 0.250000 0.235250
O O1 0.350060 0.984997 0.301900
O O2 0.497521 0.864956 0.168855
O O3 0.523138 0.893280 0.426971
O O4 0.354618 0.789449 0.345476
O O5 0.866250 0.288002 0.298433
O O6 0.081115 0.297656 0.345172
O O7 0.013147 0.346269 0.098315
O O8 0.634178 0.722859 0.039804
O O9 0.690936 0.909258 0.060195
#
# Coordination Sequence:
#
# PCOD9545275 Si02
#       5
#     8   8   8   8   4
#     4  10  24  41  68  93 132 172 216 270 330 386
#     4  10  24  41  68  93 132 172 216 270 330 386
#     4  11  24  45  68  98 134 173 220 275 332 396
#     4  11  24  45  68  98 134 173 220 275 332 396
#     4   8  24  42  60  94 144 162 212 286 328 378
#
# _framework density 24.187788000000001
#
# number of rings (size 3 to 8) (size 9 to 14) (size 15 to 20)
#    1.333    0.444    0.000    2.667    6.222    7.111 
#    8.000    0.000    0.000    0.000    0.000    0.000 
#    0.000    0.000    0.000    0.000    0.000    0.000 
#
# Total GULP energy -200589.381396 kJ/mol
# GULP energy per Si atom -5571.927261 kJ/mol
# Density = 2.413274 g / cm^3
# Si number density = 24.187788 Si / 1000 Ang^3
#
#
#
# Elastic Constant Matrix: (Units=GPa)
#
#
# Indices 1 2 3 4 5 6 
#
# 1 95.0316 19.2062 14.8549 0.0000 0.0000 -4.3937
# 2 19.2062 95.0316 14.8549 0.0000 0.0000 4.3937
# 3 14.8549 14.8549 89.0921 0.0000 0.0000 0.0000
# 4 0.0000 0.0000 0.0000 35.4935 0.0000 0.0000
# 5 0.0000 0.0000 0.0000 0.0000 35.4935 0.0000
# 6 -4.3937 4.3937 0.0000 0.0000 0.0000 42.1967
#
#
#
# Elastic Compliance Matrix: (Units=1/GPa)
#
#
# Indices 1 2 3 4 5 6 
#
# 1 0.011250 -0.002099 -0.001526 0.000000 0.000000 0.001390
# 2 -0.002099 0.011250 -0.001526 0.000000 0.000000 -0.001390
# 3 -0.001526 -0.001526 0.011733 0.000000 0.000000 0.000000
# 4 0.000000 0.000000 0.000000 0.028174 0.000000 0.000000
# 5 0.000000 0.000000 0.000000 0.000000 0.028174 0.000000
# 6 0.001390 -0.001390 0.000000 0.000000 0.000000 0.023988
#
#
# Mechanical properties :
#
#
# Convention : Reuss Voigt Hill
#
# Bulk Modulus (GPa) = 41.78646 41.88746 41.83696
# Shear Modulus (GPa) = 37.63700 37.98602 37.81151
#
# Velocity S-wave (km/s) = 3.94894 3.96721 3.95808
# Velocity P-wave (km/s) = 6.17297 6.19194 6.18246
#
# Compressibility (1/GPa) = 0.02393120
#
# Stress axis : x y z
#
# Youngs Moduli (GPa) = 88.88995 88.88995 85.22883
#
# Poissons Ratio (x) = 0.18662 0.13003
# Poissons Ratio (y) = 0.18662 0.13003
# Poissons Ratio (z) = 0.13562 0.13562
#
# Static dielectric constant tensor:
#      x y z
#    x 2.002880 0.000000 0.000000 
#    y 0.000000 2.002880 0.000000 
#    z 0.000000 0.000000 1.884080 
# 
# From -- ./inp_files/1033.got.cif
#   From: 2010.05.17/outbox.cif.g08.bks.cpg/sg86_1_cif.got.tgz:1033.got - 2010.06.03 19:03:11.
