data_PCOD9545051
_publ_section_title
;
Structure prediction by ZEFSAII (Michael W. Deem and Ramdas Pophale) SiO2 
 PCOD9545051
Probable space group: P 42/N
;
_chemical_formula_sum "Si O2"
_cell_formula_units_Z 24
_cell_length_a 9.634197
_cell_length_b 9.634197
_cell_length_c 10.665555
_cell_angle_alpha 90.000000
_cell_angle_beta 90.000000
_cell_angle_gamma 90.000000
_cell_volume 989.952837
_symmetry_space_group_name_H-M "P 42/N"
_symmetry_group_IT_number 86
_space_group.IT_coordinate_system_code '2'
_symmetry_cell_setting 'tetragonal'
loop_
_space_group_symop_operation_xyz
x,y,z
-y,1/2+x,1/2+z
1/2-x,1/2-y,z
1/2+y,-x,1/2+z
-x,-y,-z
y,1/2-x,1/2-z
1/2+x,1/2+y,-z
1/2-y,x,1/2-z
loop_
_atom_site_type_symbol
_atom_site_label
_atom_site_fract_x
_atom_site_fract_y
_atom_site_fract_z
Si Si1 0.923337 0.528667 0.631846
Si Si2 0.872144 0.074996 0.632638
Si Si3 0.294256 0.111649 0.986492
O O1 0.791891 0.430004 0.663339
O O2 0.884230 0.690322 0.604904
O O3 0.000000 0.500000 0.500000
O O4 0.025713 0.537724 0.748797
O O5 0.960190 0.202421 0.576804
O O6 0.869770 0.951930 0.529800
O O7 0.250000 0.250000 0.910983
#
# Coordination Sequence:
#
# PCOD9545051 Si02
#       3
#     8   8   8
#     4  11  22  40  67  98 132 186 232 280 356 416
#     4  10  20  42  68  93 135 178 227 288 335 424
#     4   9  20  40  67  95 130 177 225 277 354 403
#
# _framework density 24.243580999999999
#
# number of rings (size 3 to 8) (size 9 to 14) (size 15 to 20)
#    0.000    2.000    3.333    0.000    0.000    1.333 
#   18.000    3.333    0.000    0.000    0.000    0.000 
#    0.000    0.000    0.000    0.000    0.000    0.000 
#
# Total GULP energy -133611.040808 kJ/mol
# GULP energy per Si atom -5567.126700 kJ/mol
# Density = 2.418840 g / cm^3
# Si number density = 24.243581 Si / 1000 Ang^3
#
#
#
# Elastic Constant Matrix: (Units=GPa)
#
#
# Indices 1 2 3 4 5 6 
#
# 1 60.7727 56.6031 30.4611 0.0000 0.0000 16.5137
# 2 56.6031 60.7727 30.4611 0.0000 0.0000 -16.5137
# 3 30.4611 30.4611 79.9632 0.0000 0.0000 0.0000
# 4 0.0000 0.0000 0.0000 34.7100 0.0000 0.0000
# 5 0.0000 0.0000 0.0000 0.0000 34.7100 0.0000
# 6 16.5137 -16.5137 0.0000 0.0000 0.0000 64.2144
#
#
#
# Elastic Compliance Matrix: (Units=1/GPa)
#
#
# Indices 1 2 3 4 5 6 
#
# 1 -0.110325 0.120944 -0.004045 0.000000 0.000000 0.059474
# 2 0.120944 -0.110325 -0.004045 0.000000 0.000000 -0.059474
# 3 -0.004045 -0.004045 0.015588 0.000000 0.000000 0.000000
# 4 0.000000 0.000000 0.000000 0.028810 0.000000 0.000000
# 5 0.000000 0.000000 0.000000 0.000000 0.028810 0.000000
# 6 0.059474 -0.059474 0.000000 0.000000 0.000000 -0.015017
#
#
# Mechanical properties :
#
#
# Convention : Reuss Voigt Hill
#
# Bulk Modulus (GPa) = 48.43752 48.50660 48.47206
# Shear Modulus (GPa) = -13.11361 32.32575 9.60607
#
# Velocity S-wave (km/s) = -2.32827 3.65550 1.99272
# Velocity P-wave (km/s) = 3.57702 6.15373 5.03306
#
# Compressibility (1/GPa) = 0.02064515
#
# Stress axis : x y z
#
# Youngs Moduli (GPa) = -9.06414 -9.06414 64.15278
#
# Poissons Ratio (x) = 1.09625 0.25952
# Poissons Ratio (y) = 1.09625 0.25952
# Poissons Ratio (z) = -0.03667 -0.03667
#
# Static dielectric constant tensor:
#      x y z
#    x 2.125230 0.000000 0.000000 
#    y 0.000000 2.125230 0.000000 
#    z 0.000000 0.000000 1.883530 
# 
# From -- ./inp_files/714.got.cif
#   From: 2010.05.17/outbox.cif.g08.bks.cpg/sg86_1_cif.got.tgz:714.got - 2010.06.03 19:03:11.
