data_PCOD9545560
_publ_section_title
;
Structure prediction by ZEFSAII (Michael W. Deem and Ramdas Pophale) SiO2 
 PCOD9545560
Probable space group: I 4/M
;
_chemical_formula_sum "Si O2"
_cell_formula_units_Z 96
_cell_length_a 25.608449
_cell_length_b 25.608449
_cell_length_c 8.985306
_cell_angle_alpha 90.000000
_cell_angle_beta 90.000000
_cell_angle_gamma 90.000000
_cell_volume 5892.497724
_symmetry_space_group_name_H-M "I 4/M"
_symmetry_group_IT_number 87
_symmetry_cell_setting 'tetragonal'
loop_
_space_group_symop_operation_xyz
x,y,z
-y,x,z
-x,-y,z
y,-x,z
-x,-y,-z
y,-x,-z
x,y,-z
-y,x,-z
1/2+x,1/2+y,1/2+z
1/2-y,1/2+x,1/2+z
1/2-x,1/2-y,1/2+z
1/2+y,1/2-x,1/2+z
1/2-x,1/2-y,1/2-z
1/2+y,1/2-x,1/2-z
1/2+x,1/2+y,1/2-z
1/2-y,1/2+x,1/2-z
loop_
_atom_site_type_symbol
_atom_site_label
_atom_site_fract_x
_atom_site_fract_y
_atom_site_fract_z
Si Si1 0.251279 0.050437 0.170923
Si Si2 0.753413 0.333484 0.323430
Si Si3 0.056980 0.256697 0.324386
Si Si4 0.866419 0.442367 0.329639
Si Si5 0.243769 0.332597 0.321997
Si Si6 0.123251 0.443794 0.334920
O O1 0.240524 0.109081 0.229723
O O2 0.314418 0.050730 0.166614
O O3 0.235474 0.998077 0.258795
O O4 0.232457 0.046416 0.000000
O O5 0.761010 0.339471 0.500000
O O6 0.738634 0.389013 0.251909
O O7 0.707155 0.291650 0.298197
O O8 0.805458 0.306720 0.253308
O O9 0.058857 0.248760 0.500000
O O10 0.057510 0.318036 0.281769
O O11 0.847091 0.439423 0.500000
O O12 0.896310 0.497286 0.313926
O O13 0.905148 0.396430 0.289276
O O14 0.233491 0.336277 0.500000
O O15 0.107710 0.424858 0.500000
#
# Coordination Sequence:
#
# PCOD9545560 Si02
#       6
#    16  16  16  16  16  16
#     4   9  18  33  49  66  90 118 150 188 229 273
#     4  10  19  31  49  73 100 129 159 191 232 282
#     4  11  21  32  47  66  90 121 155 190 228 270
#     4  10  20  32  45  60  79 107 144 186 230 273
#     4   9  18  32  51  74  99 127 157 193 237 282
#     4   9  18  30  43  60  82 108 139 180 228 272
#
# _framework density 16.291903000000001
#
# number of rings (size 3 to 8) (size 9 to 14) (size 15 to 20)
#    0.000    2.333    0.000    4.500    0.000    6.333 
#    0.000    1.667    0.000    0.000    0.000    0.000 
#    0.000    0.667    0.000    7.667    0.000    3.000 
#
# Total GULP energy -267424.759342 kJ/mol
# GULP energy per Si atom -5571.349153 kJ/mol
# Density = 1.625482 g / cm^3
# Si number density = 16.291903 Si / 1000 Ang^3
#
#
#
# Elastic Constant Matrix: (Units=GPa)
#
#
# Indices 1 2 3 4 5 6 
#
# 1 78.5363 16.5395 32.4299 0.0000 0.0000 0.6952
# 2 16.5395 78.5363 32.4299 0.0000 0.0000 -0.6952
# 3 32.4299 32.4299 68.4659 0.0000 0.0000 0.0000
# 4 0.0000 0.0000 0.0000 19.3377 0.0000 0.0000
# 5 0.0000 0.0000 0.0000 0.0000 19.3377 0.0000
# 6 0.6952 -0.6952 0.0000 0.0000 0.0000 15.1812
#
#
#
# Elastic Compliance Matrix: (Units=1/GPa)
#
#
# Indices 1 2 3 4 5 6 
#
# 1 0.015843 -0.000304 -0.007360 0.000000 0.000000 -0.000739
# 2 -0.000304 0.015843 -0.007360 0.000000 0.000000 0.000739
# 3 -0.007360 -0.007360 0.021578 0.000000 0.000000 0.000000
# 4 0.000000 0.000000 0.000000 0.051712 0.000000 0.000000
# 5 0.000000 0.000000 0.000000 0.000000 0.051712 0.000000
# 6 -0.000739 0.000739 0.000000 0.000000 0.000000 0.065939
#
#
# Mechanical properties :
#
#
# Convention : Reuss Voigt Hill
#
# Bulk Modulus (GPa) = 43.07498 43.14857 43.11178
# Shear Modulus (GPa) = 19.20015 20.38060 19.79037
#
# Velocity S-wave (km/s) = 3.43667 3.54074 3.48909
# Velocity P-wave (km/s) = 6.49957 6.57707 6.53844
#
# Compressibility (1/GPa) = 0.02321533
#
# Stress axis : x y z
#
# Youngs Moduli (GPa) = 63.12034 63.12034 46.34251
#
# Poissons Ratio (x) = 0.01917 0.34110
# Poissons Ratio (y) = 0.01917 0.34110
# Poissons Ratio (z) = 0.46459 0.46459
#
# Static dielectric constant tensor:
#      x y z
#    x 1.572360 0.000000 0.000000 
#    y 0.000000 1.572360 0.000000 
#    z 0.000000 0.000000 1.560990 
# 
# From -- ./inp_files/1534.got.cif
#   From: 2010.05.17/outbox.cif.g08.bks.cpg/sg87_1_cif.got.tgz:1534.got - 2010.06.03 19:07:00.
