data_PCOD9545686
_publ_section_title
;
Structure prediction by ZEFSAII (Michael W. Deem and Ramdas Pophale) SiO2 
 PCOD9545686
Probable space group: I 4/M
;
_chemical_formula_sum "Si O2"
_cell_formula_units_Z 120
_cell_length_a 25.203860
_cell_length_b 25.203860
_cell_length_c 9.349580
_cell_angle_alpha 90.000000
_cell_angle_beta 90.000000
_cell_angle_gamma 90.000000
_cell_volume 5939.176327
_symmetry_space_group_name_H-M "I 4/M"
_symmetry_group_IT_number 87
_symmetry_cell_setting 'tetragonal'
loop_
_space_group_symop_operation_xyz
x,y,z
-y,x,z
-x,-y,z
y,-x,z
-x,-y,-z
y,-x,-z
x,y,-z
-y,x,-z
1/2+x,1/2+y,1/2+z
1/2-y,1/2+x,1/2+z
1/2-x,1/2-y,1/2+z
1/2+y,1/2-x,1/2+z
1/2-x,1/2-y,1/2-z
1/2+y,1/2-x,1/2-z
1/2+x,1/2+y,1/2-z
1/2-y,1/2+x,1/2-z
loop_
_atom_site_type_symbol
_atom_site_label
_atom_site_fract_x
_atom_site_fract_y
_atom_site_fract_z
Si Si1 0.924136 0.044119 0.668104
Si Si2 0.699106 0.564637 0.838354
Si Si3 0.571728 0.794728 0.327806
Si Si4 0.255040 0.774553 0.000000
Si Si5 0.655947 0.862804 0.165225
Si Si6 0.772776 0.824175 0.761494
Si Si7 0.824404 0.040590 0.169141
Si Si8 0.465828 0.823405 0.835740
O O1 0.913156 0.049699 0.500000
O O2 0.875608 0.066037 0.758256
O O3 0.981392 0.068765 0.698196
O O4 0.693884 0.624232 0.781768
O O5 0.679480 0.518789 0.733903
O O6 0.762435 0.553703 0.846901
O O7 0.677538 0.558891 0.000000
O O8 0.571362 0.801987 0.500000
O O9 0.623266 0.820448 0.257403
O O10 0.567417 0.732060 0.296841
O O11 0.520665 0.821813 0.251973
O O12 0.215524 0.798228 0.874486
O O13 0.292048 0.746154 0.876618
O O14 0.717686 0.845698 0.167675
O O15 0.649239 0.919237 0.244552
O O16 0.638542 0.864354 0.000000
O O17 0.830191 0.038559 0.000000
O O18 0.471340 0.843024 0.000000
#
# Coordination Sequence:
#
# PCOD9545686 Si02
#       8
#    16  16  16   8  16  16  16  16
#     4   9  19  38  63  84 104 138 182 227 280 344
#     4   9  17  31  53  76 102 138 183 224 265 318
#     4  10  21  36  56  83 117 151 186 234 285 328
#     4  10  20  34  50  70 106 142 186 230 268 326
#     4  11  21  34  56  82 111 146 192 232 276 338
#     4  10  20  34  53  76 104 148 191 228 273 327
#     4  10  21  35  56  83 112 140 177 230 283 327
#     4   9  18  33  55  82 107 142 186 231 275 326
#
# _framework density 20.204823000000001
#
# number of rings (size 3 to 8) (size 9 to 14) (size 15 to 20)
#    0.000    2.267    1.333    2.000    2.800    3.733 
#    0.000    3.333    2.933    0.400    0.000    2.800 
#    0.000    0.000    0.000    0.000    0.000    0.000 
#
# Total GULP energy -334007.614230 kJ/mol
# GULP energy per Si atom -5566.793571 kJ/mol
# Density = 2.015884 g / cm^3
# Si number density = 20.204823 Si / 1000 Ang^3
#
#
#
# Elastic Constant Matrix: (Units=GPa)
#
#
# Indices 1 2 3 4 5 6 
#
# 1 74.4740 22.2762 33.3465 0.0000 0.0000 5.8728
# 2 22.2762 74.4740 33.3465 0.0000 0.0000 -5.8728
# 3 33.3465 33.3465 112.4059 0.0000 0.0000 0.0000
# 4 0.0000 0.0000 0.0000 19.5584 0.0000 0.0000
# 5 0.0000 0.0000 0.0000 0.0000 19.5584 0.0000
# 6 5.8728 -5.8728 0.0000 0.0000 0.0000 -1.8446
#
#
#
# Elastic Compliance Matrix: (Units=1/GPa)
#
#
# Indices 1 2 3 4 5 6 
#
# 1 0.012077 0.000916 -0.003854 0.000000 0.000000 0.035536
# 2 0.000916 0.012077 -0.003854 0.000000 0.000000 -0.035536
# 3 -0.003854 -0.003854 0.011183 0.000000 0.000000 0.000000
# 4 0.000000 0.000000 0.000000 0.051129 0.000000 0.000000
# 5 0.000000 0.000000 0.000000 0.000000 0.051129 0.000000
# 6 0.035536 -0.035536 0.000000 0.000000 0.000000 -0.315844
#
#
# Mechanical properties :
#
#
# Convention : Reuss Voigt Hill
#
# Bulk Modulus (GPa) = 45.97458 48.81024 47.39241
# Shear Modulus (GPa) = -31.76396 18.94675 -6.40861
#
# Velocity S-wave (km/s) = -3.96927 3.06557 -1.78289
# Velocity P-wave (km/s) = 1.34047 6.06139 4.38961
#
# Compressibility (1/GPa) = 0.02175115
#
# Stress axis : x y z
#
# Youngs Moduli (GPa) = 82.80027 82.80027 89.41910
#
# Poissons Ratio (x) = -0.07582 0.34467
# Poissons Ratio (y) = -0.07582 0.34467
# Poissons Ratio (z) = 0.31915 0.31915
#
# Static dielectric constant tensor:
#      x y z
#    x 1.741580 0.000000 0.000000 
#    y 0.000000 1.741580 0.000000 
#    z 0.000000 0.000000 1.682790 
# 
# From -- ./inp_files/1712.got.cif
#   From: 2010.05.17/outbox.cif.g08.bks.cpg/sg87_1_cif.got.tgz:1712.got - 2010.06.03 19:07:00.
