data_PCOD9545541
_publ_section_title
;
Structure prediction by ZEFSAII (Michael W. Deem and Ramdas Pophale) SiO2 
 PCOD9545541
Probable space group: I 4/M
;
_chemical_formula_sum "Si O2"
_cell_formula_units_Z 96
_cell_length_a 25.805571
_cell_length_b 25.805571
_cell_length_c 9.107448
_cell_angle_alpha 90.000000
_cell_angle_beta 90.000000
_cell_angle_gamma 90.000000
_cell_volume 6064.900029
_symmetry_space_group_name_H-M "I 4/M"
_symmetry_group_IT_number 87
_symmetry_cell_setting 'tetragonal'
loop_
_space_group_symop_operation_xyz
x,y,z
-y,x,z
-x,-y,z
y,-x,z
-x,-y,-z
y,-x,-z
x,y,-z
-y,x,-z
1/2+x,1/2+y,1/2+z
1/2-y,1/2+x,1/2+z
1/2-x,1/2-y,1/2+z
1/2+y,1/2-x,1/2+z
1/2-x,1/2-y,1/2-z
1/2+y,1/2-x,1/2-z
1/2+x,1/2+y,1/2-z
1/2-y,1/2+x,1/2-z
loop_
_atom_site_type_symbol
_atom_site_label
_atom_site_fract_x
_atom_site_fract_y
_atom_site_fract_z
Si Si1 0.261601 0.553600 0.676620
Si Si2 0.627545 0.448514 0.173724
Si Si3 0.670497 0.747476 0.325597
Si Si4 0.948450 0.121282 0.832372
Si Si5 0.242700 0.167316 0.325204
Si Si6 0.745878 0.559296 0.332951
O O1 0.272894 0.550876 0.500000
O O2 0.313871 0.555016 0.770628
O O3 0.238057 0.610553 0.704127
O O4 0.234319 0.498389 0.711948
O O5 0.597198 0.398907 0.230800
O O6 0.604106 0.497954 0.258621
O O7 0.624534 0.454922 0.000000
O O8 0.674596 0.737209 0.500000
O O9 0.709071 0.794636 0.289429
O O10 0.692752 0.696337 0.245015
O O11 0.947569 0.183505 0.835030
O O12 0.942956 0.102981 0.000000
O O13 0.236076 0.165296 0.500000
O O14 0.254324 0.110073 0.264258
O O15 0.763150 0.569725 0.500000
#
# Coordination Sequence:
#
# PCOD9545541 Si02
#       6
#    16  16  16  16  16  16
#     4   9  18  33  49  63  84 119 155 179 210 265
#     4  11  21  31  44  64  84 102 135 186 232 259
#     4   9  18  32  48  66  91 123 156 185 216 266
#     4  10  20  34  47  58  77 111 148 176 213 268
#     4  10  19  29  45  70  96 120 147 185 231 269
#     4   9  18  31  47  64  84 114 149 181 213 259
#
# _framework density 15.828785999999999
#
# number of rings (size 3 to 8) (size 9 to 14) (size 15 to 20)
#    0.000    2.333    0.000    4.500    0.000    9.000 
#    0.000    1.667    0.000    0.000    0.000    0.000 
#    0.000    0.667    0.000    8.333    0.000    0.000 
#
# Total GULP energy -267347.784035 kJ/mol
# GULP energy per Si atom -5569.745501 kJ/mol
# Density = 1.579276 g / cm^3
# Si number density = 15.828786 Si / 1000 Ang^3
#
#
#
# Elastic Constant Matrix: (Units=GPa)
#
#
# Indices 1 2 3 4 5 6 
#
# 1 75.3811 20.3360 23.1948 0.0000 0.0000 0.4547
# 2 20.3360 75.3811 23.1948 0.0000 0.0000 -0.4547
# 3 23.1948 23.1948 38.2309 0.0000 0.0000 0.0000
# 4 0.0000 0.0000 0.0000 15.3502 0.0000 0.0000
# 5 0.0000 0.0000 0.0000 0.0000 15.3502 0.0000
# 6 0.4547 -0.4547 0.0000 0.0000 0.0000 17.6483
#
#
#
# Elastic Compliance Matrix: (Units=1/GPa)
#
#
# Indices 1 2 3 4 5 6 
#
# 1 0.016487 -0.001688 -0.008979 0.000000 0.000000 -0.000468
# 2 -0.001688 0.016487 -0.008979 0.000000 0.000000 0.000468
# 3 -0.008979 -0.008979 0.037051 0.000000 0.000000 0.000000
# 4 0.000000 0.000000 0.000000 0.065146 0.000000 0.000000
# 5 0.000000 0.000000 0.000000 0.000000 0.065146 0.000000
# 6 -0.000468 0.000468 0.000000 0.000000 0.000000 0.056687
#
#
# Mechanical properties :
#
#
# Convention : Reuss Voigt Hill
#
# Bulk Modulus (GPa) = 32.53605 35.82714 34.18159
# Shear Modulus (GPa) = 16.31117 17.82091 17.06604
#
# Velocity S-wave (km/s) = 3.21358 3.35902 3.28710
# Velocity P-wave (km/s) = 5.86252 6.14225 6.00401
#
# Compressibility (1/GPa) = 0.03073514
#
# Stress axis : x y z
#
# Youngs Moduli (GPa) = 60.65466 60.65466 26.98949
#
# Poissons Ratio (x) = 0.10238 0.24233
# Poissons Ratio (y) = 0.10238 0.24233
# Poissons Ratio (z) = 0.54459 0.54459
#
# Static dielectric constant tensor:
#      x y z
#    x 1.559340 0.000000 0.000000 
#    y 0.000000 1.559340 0.000000 
#    z 0.000000 0.000000 1.527280 
# 
# From -- ./inp_files/1553.got.cif
#   From: 2010.05.17/outbox.cif.g08.bks.cpg/sg87_1_cif.got.tgz:1553.got - 2010.06.03 19:07:00.
