data_PCOD9545721
_publ_section_title
;
Structure prediction by ZEFSAII (Michael W. Deem and Ramdas Pophale) SiO2 
 PCOD9545721
Probable space group: I 4/M
;
_chemical_formula_sum "Si O2"
_cell_formula_units_Z 96
_cell_length_a 24.659347
_cell_length_b 24.659347
_cell_length_c 7.910184
_cell_angle_alpha 90.000000
_cell_angle_beta 90.000000
_cell_angle_gamma 90.000000
_cell_volume 4810.051538
_symmetry_space_group_name_H-M "I 4/M"
_symmetry_group_IT_number 87
_symmetry_cell_setting 'tetragonal'
loop_
_space_group_symop_operation_xyz
x,y,z
-y,x,z
-x,-y,z
y,-x,z
-x,-y,-z
y,-x,-z
x,y,-z
-y,x,-z
1/2+x,1/2+y,1/2+z
1/2-y,1/2+x,1/2+z
1/2-x,1/2-y,1/2+z
1/2+y,1/2-x,1/2+z
1/2-x,1/2-y,1/2-z
1/2+y,1/2-x,1/2-z
1/2+x,1/2+y,1/2-z
1/2-y,1/2+x,1/2-z
loop_
_atom_site_type_symbol
_atom_site_label
_atom_site_fract_x
_atom_site_fract_y
_atom_site_fract_z
Si Si1 0.854396 0.070865 0.205459
Si Si2 0.148804 0.050957 0.799051
Si Si3 0.230051 0.579553 0.796852
Si Si4 0.452216 0.071954 0.301086
Si Si5 0.136620 0.647200 0.191100
Si Si6 0.771629 0.542685 0.800338
O O1 0.900065 0.112340 0.268165
O O2 0.793536 0.085675 0.259388
O O3 0.865206 0.009277 0.265688
O O4 0.854671 0.070611 0.000000
O O5 0.212773 0.058467 0.770010
O O6 0.139544 0.049680 0.000000
O O7 0.194564 0.630351 0.729331
O O8 0.214192 0.518334 0.733681
O O9 0.222277 0.580377 0.000000
O O10 0.454542 0.085628 0.500000
O O11 0.511270 0.070781 0.219837
O O12 0.412065 0.109535 0.198810
O O13 0.091370 0.686328 0.269949
O O14 0.144203 0.666882 0.000000
O O15 0.765905 0.536109 0.000000
#
# Coordination Sequence:
#
# PCOD9545721 Si02
#       6
#    16  16  16  16  16  16
#     4   9  18  33  56  82 110 139 170 208 256 313
#     4   9  18  34  55  82 111 140 171 209 257 313
#     4   9  20  36  53  74 104 138 175 218 265 311
#     4  11  21  33  48  69  98 132 171 220 274 325
#     4  11  21  34  52  74 100 135 178 225 270 318
#     4  10  20  35  54  77 105 140 178 220 266 317
#
# _framework density 19.958205
#
# number of rings (size 3 to 8) (size 9 to 14) (size 15 to 20)
#    0.000    2.167    0.000    4.000    0.000    4.333 
#    0.000    2.500    0.000    0.000    0.000    4.667 
#    0.000    0.000    0.000    0.000    0.000    0.000 
#
# Total GULP energy -267629.327799 kJ/mol
# GULP energy per Si atom -5575.610996 kJ/mol
# Density = 1.991278 g / cm^3
# Si number density = 19.958205 Si / 1000 Ang^3
#
#
#
# Elastic Constant Matrix: (Units=GPa)
#
#
# Indices 1 2 3 4 5 6 
#
# 1 52.7456 75.5117 -7.7850 0.0000 0.0000 5.3593
# 2 75.5117 52.7456 -7.7850 0.0000 0.0000 -5.3593
# 3 -7.7850 -7.7850 34.7227 0.0000 0.0000 0.0000
# 4 0.0000 0.0000 0.0000 15.6750 0.0000 0.0000
# 5 0.0000 0.0000 0.0000 0.0000 15.6750 0.0000
# 6 5.3593 -5.3593 0.0000 0.0000 0.0000 32.7937
#
#
#
# Elastic Compliance Matrix: (Units=1/GPa)
#
#
# Indices 1 2 3 4 5 6 
#
# 1 -0.016386 0.024401 0.001797 0.000000 0.000000 0.006666
# 2 0.024401 -0.016386 0.001797 0.000000 0.000000 -0.006666
# 3 0.001797 0.001797 0.029605 0.000000 0.000000 0.000000
# 4 0.000000 0.000000 0.000000 0.063796 0.000000 0.000000
# 5 0.000000 0.000000 0.000000 0.000000 0.063796 0.000000
# 6 0.006666 -0.006666 0.000000 0.000000 0.000000 0.028315
#
#
# Mechanical properties :
#
#
# Convention : Reuss Voigt Hill
#
# Bulk Modulus (GPa) = 18.93102 28.89971 23.91537
# Shear Modulus (GPa) = 43.72227 18.18024 30.95126
#
# Velocity S-wave (km/s) = 4.68556 3.02141 3.94230
# Velocity P-wave (km/s) = 6.22724 5.16560 5.72110
#
# Compressibility (1/GPa) = 0.05282335
#
# Stress axis : x y z
#
# Youngs Moduli (GPa) = -61.02826 -61.02826 33.77760
#
# Poissons Ratio (x) = 1.48914 -0.06070
# Poissons Ratio (y) = 1.48914 -0.06070
# Poissons Ratio (z) = 0.10967 0.10967
#
# Static dielectric constant tensor:
#      x y z
#    x 1.722720 0.000000 0.000000 
#    y 0.000000 1.722720 0.000000 
#    z 0.000000 0.000000 1.720730 
# 
# From -- ./inp_files/1356.got.cif
#   From: 2010.05.17/outbox.cif.g08.bks.cpg/sg87_1_cif.got.tgz:1356.got - 2010.06.03 19:07:00.
