data_PCOD9545770
_publ_section_title
;
Structure prediction by ZEFSAII (Michael W. Deem and Ramdas Pophale) SiO2 
 PCOD9545770
Probable space group: I 4/M
;
_chemical_formula_sum "Si O2"
_cell_formula_units_Z 96
_cell_length_a 24.610064
_cell_length_b 24.610064
_cell_length_c 8.501210
_cell_angle_alpha 90.000000
_cell_angle_beta 90.000000
_cell_angle_gamma 90.000000
_cell_volume 5148.802469
_symmetry_space_group_name_H-M "I 4/M"
_symmetry_group_IT_number 87
_symmetry_cell_setting 'tetragonal'
loop_
_space_group_symop_operation_xyz
x,y,z
-y,x,z
-x,-y,z
y,-x,z
-x,-y,-z
y,-x,-z
x,y,-z
-y,x,-z
1/2+x,1/2+y,1/2+z
1/2-y,1/2+x,1/2+z
1/2-x,1/2-y,1/2+z
1/2+y,1/2-x,1/2+z
1/2-x,1/2-y,1/2-z
1/2+y,1/2-x,1/2-z
1/2+x,1/2+y,1/2-z
1/2-y,1/2+x,1/2-z
loop_
_atom_site_type_symbol
_atom_site_label
_atom_site_fract_x
_atom_site_fract_y
_atom_site_fract_z
Si Si1 0.359898 0.260522 0.688927
Si Si2 0.446040 0.933154 0.187797
Si Si3 0.054365 0.148186 0.190396
Si Si4 0.857157 0.348730 0.813240
Si Si5 0.272680 0.341334 0.186567
Si Si6 0.431614 0.645330 0.308718
O O1 0.359546 0.255859 0.500000
O O2 0.407311 0.302053 0.739014
O O3 0.370215 0.202177 0.763602
O O4 0.303324 0.288838 0.740440
O O5 0.507270 0.926307 0.254164
O O6 0.404852 0.886056 0.242351
O O7 0.448903 0.933766 0.000000
O O8 0.086567 0.093430 0.231082
O O9 0.993079 0.151161 0.246590
O O10 0.052040 0.150045 0.000000
O O11 0.854634 0.286887 0.751405
O O12 0.863069 0.348533 0.000000
O O13 0.310671 0.391951 0.233305
O O14 0.269839 0.333912 0.000000
O O15 0.428878 0.651317 0.500000
#
# Coordination Sequence:
#
# PCOD9545770 Si02
#       6
#    16  16  16  16  16  16
#     4  10  20  37  57  82 114 149 186 233 287 342
#     4  11  23  43  66  90 119 153 189 232 282 335
#     4   8  16  30  53  79 108 143 184 229 275 323
#     4  12  24  39  60  87 114 148 189 232 279 338
#     4  11  22  37  55  80 112 149 188 234 287 343
#     4   9  17  33  53  78 109 146 187 231 280 332
#
# _framework density 18.645112999999998
#
# number of rings (size 3 to 8) (size 9 to 14) (size 15 to 20)
#    0.000    1.833    0.000    7.000    0.000    1.667 
#    0.000   10.833    0.000    0.000    0.000    4.667 
#    0.000    0.000    0.000    0.000    0.000    0.000 
#
# Total GULP energy -268024.126610 kJ/mol
# GULP energy per Si atom -5583.835971 kJ/mol
# Density = 1.860268 g / cm^3
# Si number density = 18.645113 Si / 1000 Ang^3
#
#
#
# Elastic Constant Matrix: (Units=GPa)
#
#
# Indices 1 2 3 4 5 6 
#
# 1 75.8303 -43.7739 -6.0440 0.0000 0.0000 -3.9039
# 2 -43.7739 75.8303 -6.0440 0.0000 0.0000 3.9039
# 3 -6.0440 -6.0440 87.1472 0.0000 0.0000 0.0000
# 4 0.0000 0.0000 0.0000 25.9165 0.0000 0.0000
# 5 0.0000 0.0000 0.0000 0.0000 25.9165 0.0000
# 6 -3.9039 3.9039 0.0000 0.0000 0.0000 26.7637
#
#
#
# Elastic Compliance Matrix: (Units=1/GPa)
#
#
# Indices 1 2 3 4 5 6 
#
# 1 0.020237 0.011796 0.002222 0.000000 0.000000 0.001231
# 2 0.011796 0.020237 0.002222 0.000000 0.000000 -0.001231
# 3 0.002222 0.002222 0.011783 0.000000 0.000000 0.000000
# 4 0.000000 0.000000 0.000000 0.038585 0.000000 0.000000
# 5 0.000000 0.000000 0.000000 0.000000 0.038585 0.000000
# 6 0.001231 -0.001231 0.000000 0.000000 0.000000 0.037723
#
#
# Mechanical properties :
#
#
# Convention : Reuss Voigt Hill
#
# Bulk Modulus (GPa) = 11.80151 14.12044 12.96098
# Shear Modulus (GPa) = 30.69023 35.36398 33.02711
#
# Velocity S-wave (km/s) = 4.06152 4.35982 4.21331
# Velocity P-wave (km/s) = 5.32333 5.73880 5.53496
#
# Compressibility (1/GPa) = 0.08473489
#
# Stress axis : x y z
#
# Youngs Moduli (GPa) = 49.41437 49.41437 84.86806
#
# Poissons Ratio (x) = -0.58288 -0.18854
# Poissons Ratio (y) = -0.58288 -0.18854
# Poissons Ratio (z) = -0.10978 -0.10978
#
# Static dielectric constant tensor:
#      x y z
#    x 1.637640 0.000000 0.000000 
#    y 0.000000 1.637640 0.000000 
#    z 0.000000 0.000000 1.633570 
# 
# From -- ./inp_files/1353.got.cif
#   From: 2010.05.17/outbox.cif.g08.bks.cpg/sg87_1_cif.got.tgz:1353.got - 2010.06.03 19:07:00.
