data_PCOD9545851
_publ_section_title
;
Structure prediction by ZEFSAII (Michael W. Deem and Ramdas Pophale) SiO2 
 PCOD9545851
Probable space group: I 4/M
;
_chemical_formula_sum "Si O2"
_cell_formula_units_Z 88
_cell_length_a 15.914983
_cell_length_b 15.914983
_cell_length_c 20.384557
_cell_angle_alpha 90.000000
_cell_angle_beta 90.000000
_cell_angle_gamma 90.000000
_cell_volume 5163.136845
_symmetry_space_group_name_H-M "I 4/M"
_symmetry_group_IT_number 87
_symmetry_cell_setting 'tetragonal'
loop_
_space_group_symop_operation_xyz
x,y,z
-y,x,z
-x,-y,z
y,-x,z
-x,-y,-z
y,-x,-z
x,y,-z
-y,x,-z
1/2+x,1/2+y,1/2+z
1/2-y,1/2+x,1/2+z
1/2-x,1/2-y,1/2+z
1/2+y,1/2-x,1/2+z
1/2-x,1/2-y,1/2-z
1/2+y,1/2-x,1/2-z
1/2+x,1/2+y,1/2-z
1/2-y,1/2+x,1/2-z
loop_
_atom_site_type_symbol
_atom_site_label
_atom_site_fract_x
_atom_site_fract_y
_atom_site_fract_z
Si Si1 0.878797 0.067738 0.078060
Si Si2 0.460594 0.131643 0.234812
Si Si3 0.856019 0.001242 0.500000
Si Si4 0.256041 0.647935 0.679671
Si Si5 0.351670 0.692830 0.807257
Si Si6 0.230619 0.973734 0.362279
O O1 0.805055 0.110050 0.118765
O O2 0.968857 0.110296 0.093563
O O3 0.865880 0.075011 0.000000
O O4 0.551460 0.100476 0.258984
O O5 0.422563 0.203135 0.281724
O O6 0.465148 0.172806 0.162202
O O7 0.918033 0.919756 0.500000
O O8 0.796566 0.003752 0.435969
O O9 0.323230 0.684829 0.731863
O O10 0.191778 0.723305 0.664478
O O11 0.450543 0.696456 0.817284
O O12 0.314560 0.612816 0.844411
#
# Coordination Sequence:
#
# PCOD9545851 Si02
#       6
#    16  16   8  16  16  16
#     4   9  20  38  58  83 113 147 186 232 295 352
#     4  10  21  38  63  85 114 154 192 240 295 338
#     4  11  22  38  58  81 120 166 194 231 296 358
#     4  10  21  37  59  85 115 145 193 241 288 342
#     4  10  22  35  56  88 114 146 192 242 285 342
#     4  11  21  39  57  84 120 151 195 236 289 350
#
# _framework density 17.043903
#
# number of rings (size 3 to 8) (size 9 to 14) (size 15 to 20)
#    0.000    1.909    3.636    0.545    5.091    0.364 
#    3.273    0.000    2.000    1.091    0.000    0.000 
#    0.000    0.000    0.000    0.000    0.000    0.000 
#
# Total GULP energy -245336.803308 kJ/mol
# GULP energy per Si atom -5575.836439 kJ/mol
# Density = 1.700511 g / cm^3
# Si number density = 17.043903 Si / 1000 Ang^3
#
#
#
# Elastic Constant Matrix: (Units=GPa)
#
#
# Indices 1 2 3 4 5 6 
#
# 1 91.6678 43.7020 46.0152 0.0000 0.0000 0.4101
# 2 43.7020 91.6678 46.0152 0.0000 0.0000 -0.4101
# 3 46.0152 46.0152 55.5838 0.0000 0.0000 0.0000
# 4 0.0000 0.0000 0.0000 23.5432 0.0000 0.0000
# 5 0.0000 0.0000 0.0000 0.0000 23.5432 0.0000
# 6 0.4101 -0.4101 0.0000 0.0000 0.0000 27.4642
#
#
#
# Elastic Compliance Matrix: (Units=1/GPa)
#
#
# Indices 1 2 3 4 5 6 
#
# 1 0.018875 -0.001978 -0.013988 0.000000 0.000000 -0.000311
# 2 -0.001978 0.018875 -0.013988 0.000000 0.000000 0.000311
# 3 -0.013988 -0.013988 0.041151 0.000000 0.000000 0.000000
# 4 0.000000 0.000000 0.000000 0.042475 0.000000 0.000000
# 5 0.000000 0.000000 0.000000 0.000000 0.042475 0.000000
# 6 -0.000311 0.000311 0.000000 0.000000 0.000000 0.036420
#
#
# Mechanical properties :
#
#
# Convention : Reuss Voigt Hill
#
# Bulk Modulus (GPa) = 52.65284 56.70935 54.68109
# Shear Modulus (GPa) = 18.76081 21.78923 20.27502
#
# Velocity S-wave (km/s) = 3.32133 3.57938 3.45277
# Velocity P-wave (km/s) = 6.75780 7.10122 6.93164
#
# Compressibility (1/GPa) = 0.01899233
#
# Stress axis : x y z
#
# Youngs Moduli (GPa) = 52.97934 52.97934 24.30052
#
# Poissons Ratio (x) = 0.10481 0.33992
# Poissons Ratio (y) = 0.10481 0.33992
# Poissons Ratio (z) = 0.74109 0.74109
#
# Static dielectric constant tensor:
#      x y z
#    x 1.581940 0.000000 0.000000 
#    y 0.000000 1.581940 0.000000 
#    z 0.000000 0.000000 1.561790 
# 
# From -- ./inp_files/5168.got.cif
#   From: 2010.05.17/outbox.cif.g08.bks.cpg/sg87_3_cif.got.tgz:5168.got - 2010.06.03 19:07:00.
