data_PCOD9545808
_publ_section_title
;
Structure prediction by ZEFSAII (Michael W. Deem and Ramdas Pophale) SiO2 
 PCOD9545808
Probable space group: I 4/M
;
_chemical_formula_sum "Si O2"
_cell_formula_units_Z 120
_cell_length_a 14.386348
_cell_length_b 14.386348
_cell_length_c 30.320037
_cell_angle_alpha 90.000000
_cell_angle_beta 90.000000
_cell_angle_gamma 90.000000
_cell_volume 6275.247364
_symmetry_space_group_name_H-M "I 4/M"
_symmetry_group_IT_number 87
_symmetry_cell_setting 'tetragonal'
loop_
_space_group_symop_operation_xyz
x,y,z
-y,x,z
-x,-y,z
y,-x,z
-x,-y,-z
y,-x,-z
x,y,-z
-y,x,-z
1/2+x,1/2+y,1/2+z
1/2-y,1/2+x,1/2+z
1/2-x,1/2-y,1/2+z
1/2+y,1/2-x,1/2+z
1/2-x,1/2-y,1/2-z
1/2+y,1/2-x,1/2-z
1/2+x,1/2+y,1/2-z
1/2-y,1/2+x,1/2-z
loop_
_atom_site_type_symbol
_atom_site_label
_atom_site_fract_x
_atom_site_fract_y
_atom_site_fract_z
Si Si1 0.362856 0.426347 0.859564
Si Si2 0.559563 0.354460 0.500000
Si Si3 0.731775 0.942997 0.086068
Si Si4 0.875711 0.663311 0.050600
Si Si5 0.153440 0.554976 0.050821
Si Si6 0.663075 0.329859 0.951163
Si Si7 0.433818 0.643495 0.668665
Si Si8 0.071197 0.858948 0.265509
O O1 0.463989 0.379155 0.858179
O O2 0.328275 0.398637 0.907556
O O3 0.313768 0.402783 0.812743
O O4 0.616214 0.450716 0.500000
O O5 0.579268 0.294973 0.543560
O O6 0.629544 0.899477 0.080557
O O7 0.785679 0.912703 0.129617
O O8 0.713561 0.053712 0.082813
O O9 0.863561 0.553126 0.061156
O O10 0.773097 0.706806 0.049777
O O11 0.911787 0.667788 0.000000
O O12 0.260071 0.589943 0.051825
O O13 0.122166 0.567363 0.000000
O O14 0.616725 0.337315 0.000000
O O15 0.382182 0.543870 0.665064
O O16 0.410814 0.683473 0.717432
O O17 0.960734 0.880848 0.265447
#
# Coordination Sequence:
#
# PCOD9545808 Si02
#       8
#    16   8  16  16  16  16  16  16
#     4   9  16  28  50  78 104 135 170 207 262 322
#     4  11  24  34  47  76 114 142 169 220 280 331
#     4  12  21  32  54  71 103 141 189 221 262 327
#     4  10  21  36  51  72 102 143 188 224 264 316
#     4  10  21  36  51  71 103 144 184 226 269 314
#     4  10  21  33  51  75 108 139 171 225 271 320
#     4   9  18  31  49  78 110 137 168 218 274 323
#     4   7  12  26  47  72 102 133 167 207 258 317
#
# _framework density 19.122752999999999
#
# number of rings (size 3 to 8) (size 9 to 14) (size 15 to 20)
#    0.000    2.333    1.333    3.600    3.733    3.733 
#    0.000    0.667    0.000    0.800    3.467    0.000 
#    0.000    0.000    0.000    0.000    0.000    0.000 
#
# Total GULP energy -334311.993078 kJ/mol
# GULP energy per Si atom -5571.866551 kJ/mol
# Density = 1.907923 g / cm^3
# Si number density = 19.122753 Si / 1000 Ang^3
#
#
#
# Elastic Constant Matrix: (Units=GPa)
#
#
# Indices 1 2 3 4 5 6 
#
# 1 57.6805 1.5870 29.6238 0.0000 0.0000 -4.6560
# 2 1.5870 57.6805 29.6238 0.0000 0.0000 4.6560
# 3 29.6238 29.6238 169.7339 0.0000 0.0000 0.0000
# 4 0.0000 0.0000 0.0000 4.1466 0.0000 0.0000
# 5 0.0000 0.0000 0.0000 0.0000 4.1466 0.0000
# 6 -4.6560 4.6560 0.0000 0.0000 0.0000 19.7530
#
#
#
# Elastic Compliance Matrix: (Units=1/GPa)
#
#
# Indices 1 2 3 4 5 6 
#
# 1 0.019496 0.000943 -0.003567 0.000000 0.000000 0.004373
# 2 0.000943 0.019496 -0.003567 0.000000 0.000000 -0.004373
# 3 -0.003567 -0.003567 0.007137 0.000000 0.000000 0.000000
# 4 0.000000 0.000000 0.000000 0.241164 0.000000 0.000000
# 5 0.000000 0.000000 0.000000 0.000000 0.241164 0.000000
# 6 0.004373 -0.004373 0.000000 0.000000 0.000000 0.052687
#
#
# Mechanical properties :
#
#
# Convention : Reuss Voigt Hill
#
# Bulk Modulus (GPa) = 29.63374 45.19603 37.41489
# Shear Modulus (GPa) = 8.26753 20.55991 14.41372
#
# Velocity S-wave (km/s) = 2.08153 3.28251 2.74842
# Velocity P-wave (km/s) = 4.61598 6.16867 5.44793
#
# Compressibility (1/GPa) = 0.03374531
#
# Stress axis : x y z
#
# Youngs Moduli (GPa) = 51.29258 51.29258 140.12003
#
# Poissons Ratio (x) = -0.04835 0.49983
# Poissons Ratio (y) = -0.04835 0.49983
# Poissons Ratio (z) = 0.18297 0.18297
#
# Static dielectric constant tensor:
#      x y z
#    x 1.691760 0.000000 0.000000 
#    y 0.000000 1.691760 0.000000 
#    z 0.000000 0.000000 1.726050 
# 
# From -- ./inp_files/6762.got.cif
#   From: 2010.05.17/outbox.cif.g08.bks.cpg/sg87_4_cif.got.tgz:6762.got - 2010.06.03 19:07:00.
