data_PCOD9545059
_publ_section_title
;
Structure prediction by ZEFSAII (Michael W. Deem and Ramdas Pophale) SiO2 
 PCOD9545059
Probable space group: P 42/N
;
_chemical_formula_sum "Si O2"
_cell_formula_units_Z 54
_cell_length_a 18.662723
_cell_length_b 18.662723
_cell_length_c 6.399666
_cell_angle_alpha 90.000000
_cell_angle_beta 90.000000
_cell_angle_gamma 90.000000
_cell_volume 2228.985939
_symmetry_space_group_name_H-M "P 42/N"
_symmetry_group_IT_number 86
_space_group.IT_coordinate_system_code '2'
_symmetry_cell_setting 'tetragonal'
loop_
_space_group_symop_operation_xyz
x,y,z
-y,1/2+x,1/2+z
1/2-x,1/2-y,z
1/2+y,-x,1/2+z
-x,-y,-z
y,1/2-x,1/2-z
1/2+x,1/2+y,-z
1/2-y,x,1/2-z
loop_
_atom_site_type_symbol
_atom_site_label
_atom_site_fract_x
_atom_site_fract_y
_atom_site_fract_z
Si Si1 0.750000 0.750000 0.750000
Si Si2 0.549622 0.456300 0.221621
Si Si3 0.483512 0.736225 0.239802
Si Si4 0.893633 0.545725 0.035981
Si Si5 0.798634 0.893043 0.557310
Si Si6 0.250000 0.750000 0.512820
Si Si7 0.846220 0.015497 0.877218
Si Si8 0.827729 0.116639 0.490854
O O1 0.752510 0.824551 0.622427
O O2 0.482550 0.408972 0.300382
O O3 0.547875 0.530626 0.347486
O O4 0.614122 0.412150 0.329689
O O5 0.576120 0.475670 0.989281
O O6 0.494547 0.658320 0.334761
O O7 0.481075 0.788881 0.437811
O O8 0.552352 0.759185 0.099685
O O9 0.414653 0.751270 0.093774
O O10 0.864561 0.626362 0.036797
O O11 0.825784 0.943773 0.748539
O O12 0.250000 0.750000 0.762389
O O13 0.176040 0.799414 0.509568
O O14 0.839995 0.079458 0.712038
#
# Coordination Sequence:
#
# PCOD9545059 Si02
#       8
#     2   8   8   8   8   4   8   8
#     4  12  28  40  70 108 148 198 280 316 390 480
#     4  10  23  43  74 106 148 189 256 320 386 474
#     4  10  23  43  72  97 152 199 244 317 393 456
#     4  11  22  43  70 108 144 196 258 315 394 470
#     4  11  24  45  64 107 147 201 260 320 389 467
#     4  12  32  50  82 116 154 204 266 320 404 492
#     4  10  20  46  72  98 152 197 243 322 388 464
#     4  10  24  50  70 107 148 198 256 319 391 483
#
# _framework density 24.226262999999999
#
# number of rings (size 3 to 8) (size 9 to 14) (size 15 to 20)
#    0.000    1.481    4.444    0.889    8.296    1.778 
#    0.000    0.741    0.000    0.000    0.000    0.000 
#    0.000    0.000    0.000    0.000    0.000    0.000 
#
# Total GULP energy -301088.447838 kJ/mol
# GULP energy per Si atom -5575.711997 kJ/mol
# Density = 2.417112 g / cm^3
# Si number density = 24.226263 Si / 1000 Ang^3
#
#
#
# Elastic Constant Matrix: (Units=GPa)
#
#
# Indices 1 2 3 4 5 6 
#
# 1 28.4804 44.1928 13.7311 0.0000 0.0000 14.5575
# 2 44.1928 28.4804 13.7311 0.0000 0.0000 -14.5575
# 3 13.7311 13.7311 144.9758 0.0000 0.0000 0.0000
# 4 0.0000 0.0000 0.0000 38.4258 0.0000 0.0000
# 5 0.0000 0.0000 0.0000 0.0000 38.4258 0.0000
# 6 14.5575 -14.5575 0.0000 0.0000 0.0000 34.7788
#
#
#
# Elastic Compliance Matrix: (Units=1/GPa)
#
#
# Indices 1 2 3 4 5 6 
#
# 1 -0.010786 0.025057 -0.001352 0.000000 0.000000 0.015003
# 2 0.025057 -0.010786 -0.001352 0.000000 0.000000 -0.015003
# 3 -0.001352 -0.001352 0.007154 0.000000 0.000000 0.000000
# 4 0.000000 0.000000 0.000000 0.026024 0.000000 0.000000
# 5 0.000000 0.000000 0.000000 0.000000 0.026024 0.000000
# 6 0.015003 -0.015003 0.000000 0.000000 0.000000 0.016193
#
#
# Mechanical properties :
#
#
# Convention : Reuss Voigt Hill
#
# Bulk Modulus (GPa) = 33.01509 38.36069 35.68789
# Shear Modulus (GPa) = 260.25395 31.01149 145.63272
#
# Velocity S-wave (km/s) = 10.37591 3.58170 7.76171
# Velocity P-wave (km/s) = 12.53808 5.74225 9.75133
#
# Compressibility (1/GPa) = 0.03028918
#
# Stress axis : x y z
#
# Youngs Moduli (GPa) = -92.71183 -92.71183 139.78700
#
# Poissons Ratio (x) = 2.32309 0.18894
# Poissons Ratio (y) = 2.32309 0.18894
# Poissons Ratio (z) = -0.12531 -0.12531
#
# Static dielectric constant tensor:
#      x y z
#    x -23.605180 0.000000 0.000000 
#    y 0.000000 -23.605180 0.000000 
#    z 0.000000 0.000000 1.906770 
# 
# From -- ./inp_files/487.got.cif
#   From: 2010.05.17/outbox.cif.g08.bks.cpg/sg86_1_cif.got.tgz:487.got - 2010.06.03 19:03:11.
