data_PCOD9545578
_publ_section_title
;
Structure prediction by ZEFSAII (Michael W. Deem and Ramdas Pophale) SiO2 
 PCOD9545578
Probable space group: I 4/M
;
_chemical_formula_sum "Si O2"
_cell_formula_units_Z 96
_cell_length_a 25.899777
_cell_length_b 25.899777
_cell_length_c 8.951761
_cell_angle_alpha 90.000000
_cell_angle_beta 90.000000
_cell_angle_gamma 90.000000
_cell_volume 6004.827391
_symmetry_space_group_name_H-M "I 4/M"
_symmetry_group_IT_number 87
_symmetry_cell_setting 'tetragonal'
loop_
_space_group_symop_operation_xyz
x,y,z
-y,x,z
-x,-y,z
y,-x,z
-x,-y,-z
y,-x,-z
x,y,-z
-y,x,-z
1/2+x,1/2+y,1/2+z
1/2-y,1/2+x,1/2+z
1/2-x,1/2-y,1/2+z
1/2+y,1/2-x,1/2+z
1/2-x,1/2-y,1/2-z
1/2+y,1/2-x,1/2-z
1/2+x,1/2+y,1/2-z
1/2-y,1/2+x,1/2-z
loop_
_atom_site_type_symbol
_atom_site_label
_atom_site_fract_x
_atom_site_fract_y
_atom_site_fract_z
Si Si1 0.249753 0.950184 0.675891
Si Si2 0.137798 0.057178 0.179677
Si Si3 0.252658 0.060735 0.176007
Si Si4 0.056854 0.134731 0.322615
Si Si5 0.438945 0.858554 0.822067
Si Si6 0.363470 0.939976 0.322547
O O1 0.251493 0.967013 0.500000
O O2 0.194225 0.924312 0.697721
O O3 0.304025 0.922133 0.703312
O O4 0.250228 0.000305 0.780162
O O5 0.195069 0.079310 0.217206
O O6 0.093998 0.095059 0.239810
O O7 0.132016 0.001064 0.256283
O O8 0.135136 0.051384 0.000000
O O9 0.303429 0.080435 0.259601
O O10 0.259871 0.067367 0.000000
O O11 0.055444 0.124137 0.500000
O O12 0.404099 0.904635 0.761296
O O13 0.499408 0.865825 0.778468
O O14 0.437552 0.857045 0.000000
O O15 0.373391 0.936985 0.500000
#
# Coordination Sequence:
#
# PCOD9545578 Si02
#       6
#    16  16  16  16  16  16
#     4   8  16  31  49  69  93 122 158 197 233 275
#     4  10  20  33  49  72 100 127 157 195 238 282
#     4   9  17  30  49  69  91 123 159 194 233 278
#     4  10  19  32  51  73  97 127 161 195 235 283
#     4  10  20  32  48  71  97 125 158 196 235 278
#     4   9  18  32  48  68  96 126 155 191 236 281
#
# _framework density 15.987137000000001
#
# number of rings (size 3 to 8) (size 9 to 14) (size 15 to 20)
#    0.000    2.667    0.000    3.000    0.000    6.667 
#    0.000    3.333    0.000    1.000    0.000    0.000 
#    0.000    0.000    0.000    0.000    0.000    0.000 
#
# Total GULP energy -267226.862548 kJ/mol
# GULP energy per Si atom -5567.226303 kJ/mol
# Density = 1.595075 g / cm^3
# Si number density = 15.987137 Si / 1000 Ang^3
#
#
#
# Elastic Constant Matrix: (Units=GPa)
#
#
# Indices 1 2 3 4 5 6 
#
# 1 92.8926 63.5791 40.1394 0.0000 0.0000 -0.0864
# 2 63.5791 92.8926 40.1394 0.0000 0.0000 0.0864
# 3 40.1394 40.1394 47.3699 0.0000 0.0000 0.0000
# 4 0.0000 0.0000 0.0000 24.9987 0.0000 0.0000
# 5 0.0000 0.0000 0.0000 0.0000 24.9987 0.0000
# 6 -0.0864 0.0864 0.0000 0.0000 0.0000 -3.2903
#
#
#
# Elastic Compliance Matrix: (Units=1/GPa)
#
#
# Indices 1 2 3 4 5 6 
#
# 1 0.022707 -0.011401 -0.009580 0.000000 0.000000 -0.000895
# 2 -0.011401 0.022707 -0.009580 0.000000 0.000000 0.000895
# 3 -0.009580 -0.009580 0.037347 0.000000 0.000000 0.000000
# 4 0.000000 0.000000 0.000000 0.040002 0.000000 0.000000
# 5 0.000000 0.000000 0.000000 0.000000 0.040002 0.000000
# 6 -0.000895 0.000895 0.000000 0.000000 0.000000 -0.303881
#
#
# Mechanical properties :
#
#
# Convention : Reuss Voigt Hill
#
# Bulk Modulus (GPa) = 46.21651 57.87454 52.04552
# Shear Modulus (GPa) = -68.70141 15.29458 -26.70342
#
# Velocity S-wave (km/s) = -6.56249 3.09638 -4.09137
# Velocity P-wave (km/s) = 5.33388 7.00448 3.21033
#
# Compressibility (1/GPa) = 0.02163729
#
# Stress axis : x y z
#
# Youngs Moduli (GPa) = 44.03845 44.03845 26.77617
#
# Poissons Ratio (x) = 0.50209 0.25653
# Poissons Ratio (y) = 0.50209 0.25653
# Poissons Ratio (z) = 0.42191 0.42191
#
# Static dielectric constant tensor:
#      x y z
#    x 1.536120 0.000000 0.000000 
#    y 0.000000 1.536120 0.000000 
#    z 0.000000 0.000000 1.532750 
# 
# From -- ./inp_files/1325.got.cif
#   From: 2010.05.17/outbox.cif.g08.bks.cpg/sg87_1_cif.got.tgz:1325.got - 2010.06.03 19:07:00.
