data_PCOD9545091
_publ_section_title
;
Structure prediction by ZEFSAII (Michael W. Deem and Ramdas Pophale) SiO2 
 PCOD9545091
Probable space group: P 42/N
;
_chemical_formula_sum "Si O2"
_cell_formula_units_Z 38
_cell_length_a 14.007106
_cell_length_b 14.007106
_cell_length_c 9.310668
_cell_angle_alpha 90.000000
_cell_angle_beta 90.000000
_cell_angle_gamma 90.000000
_cell_volume 1826.743923
_symmetry_space_group_name_H-M "P 42/N"
_symmetry_group_IT_number 86
_space_group.IT_coordinate_system_code '2'
_symmetry_cell_setting 'tetragonal'
loop_
_space_group_symop_operation_xyz
x,y,z
-y,1/2+x,1/2+z
1/2-x,1/2-y,z
1/2+y,-x,1/2+z
-x,-y,-z
y,1/2-x,1/2-z
1/2+x,1/2+y,-z
1/2-y,x,1/2-z
loop_
_atom_site_type_symbol
_atom_site_label
_atom_site_fract_x
_atom_site_fract_y
_atom_site_fract_z
Si Si1 0.750000 0.250000 0.209449
Si Si2 0.219873 0.056833 0.919274
Si Si3 0.750000 0.750000 0.250000
Si Si4 0.887186 0.412526 0.101157
Si Si5 0.061219 0.032174 0.138705
Si Si6 0.588022 0.111108 0.794111
O O1 0.816332 0.322786 0.121876
O O2 0.823332 0.182105 0.293952
O O3 0.229507 0.159516 0.849604
O O4 0.320962 0.003899 0.930102
O O5 0.161657 0.990038 0.806477
O O6 0.161443 0.061197 0.068297
O O7 0.947463 0.424831 0.246043
O O8 0.947616 0.396968 0.956973
O O9 0.992550 0.105955 0.222788
O O10 0.000000 0.000000 0.000000
#
# Coordination Sequence:
#
# PCOD9545091 Si02
#       6
#     4   8   2   8   8   8
#     4  10  22  36  62  98 130 160 212 268 320 380
#     4  10  23  40  62  89 121 168 212 254 314 380
#     4  12  24  44  64  82 120 172 224 258 304 392
#     4  11  21  39  65  95 126 162 209 263 324 384
#     4  10  21  38  57  84 121 159 204 257 313 372
#     4  10  21  38  63  92 124 164 205 261 321 377
#
# _framework density 20.802039000000001
#
# number of rings (size 3 to 8) (size 9 to 14) (size 15 to 20)
#    0.000    1.684    0.000    5.053    0.000   10.105 
#    0.000    2.105    0.000    1.263    0.000    0.000 
#    0.000    0.000    0.000    0.000    0.000    0.000 
#
# Total GULP energy -212133.354507 kJ/mol
# GULP energy per Si atom -5582.456698 kJ/mol
# Density = 2.075469 g / cm^3
# Si number density = 20.802039 Si / 1000 Ang^3
#
#
#
# Elastic Constant Matrix: (Units=GPa)
#
#
# Indices 1 2 3 4 5 6 
#
# 1 98.5411 51.1316 41.4189 0.0000 0.0000 0.0455
# 2 51.1316 98.5411 41.4189 0.0000 0.0000 -0.0455
# 3 41.4189 41.4189 130.9921 0.0000 0.0000 0.0000
# 4 0.0000 0.0000 0.0000 0.2612 0.0000 0.0000
# 5 0.0000 0.0000 0.0000 0.0000 0.2612 0.0000
# 6 0.0455 -0.0455 0.0000 0.0000 0.0000 28.5805
#
#
#
# Elastic Compliance Matrix: (Units=1/GPa)
#
#
# Indices 1 2 3 4 5 6 
#
# 1 0.014596 -0.006497 -0.002561 0.000000 0.000000 -0.000034
# 2 -0.006497 0.014596 -0.002561 0.000000 0.000000 0.000034
# 3 -0.002561 -0.002561 0.009253 0.000000 0.000000 0.000000
# 4 0.000000 0.000000 0.000000 3.828433 0.000000 0.000000
# 5 0.000000 0.000000 0.000000 0.000000 3.828433 0.000000
# 6 -0.000034 0.000034 0.000000 0.000000 0.000000 0.034989
#
#
# Mechanical properties :
#
#
# Convention : Reuss Voigt Hill
#
# Bulk Modulus (GPa) = 65.75662 66.22371 65.99016
# Shear Modulus (GPa) = 0.64445 18.76090 9.70267
#
# Velocity S-wave (km/s) = 0.55720 3.00639 2.16204
# Velocity P-wave (km/s) = 5.66509 6.62989 6.16639
#
# Compressibility (1/GPa) = 0.01520760
#
# Stress axis : x y z
#
# Youngs Moduli (GPa) = 68.51332 68.51332 108.06840
#
# Poissons Ratio (x) = 0.44515 0.27673
# Poissons Ratio (y) = 0.44515 0.27673
# Poissons Ratio (z) = 0.17544 0.17544
#
# Static dielectric constant tensor:
#      x y z
#    x 1.771240 0.000000 0.000000 
#    y 0.000000 1.771240 0.000000 
#    z 0.000000 0.000000 1.729940 
# 
# From -- ./inp_files/1062.got.cif
#   From: 2010.05.17/outbox.cif.g08.bks.cpg/sg86_1_cif.got.tgz:1062.got - 2010.06.03 19:03:11.
