data_PCOD9545778
_publ_section_title
;
Structure prediction by ZEFSAII (Michael W. Deem and Ramdas Pophale) SiO2 
 PCOD9545778
Probable space group: I 4/M
;
_chemical_formula_sum "Si O2"
_cell_formula_units_Z 120
_cell_length_a 24.833079
_cell_length_b 24.833079
_cell_length_c 8.167992
_cell_angle_alpha 90.000000
_cell_angle_beta 90.000000
_cell_angle_gamma 90.000000
_cell_volume 5037.052112
_symmetry_space_group_name_H-M "I 4/M"
_symmetry_group_IT_number 87
_symmetry_cell_setting 'tetragonal'
loop_
_space_group_symop_operation_xyz
x,y,z
-y,x,z
-x,-y,z
y,-x,z
-x,-y,-z
y,-x,-z
x,y,-z
-y,x,-z
1/2+x,1/2+y,1/2+z
1/2-y,1/2+x,1/2+z
1/2-x,1/2-y,1/2+z
1/2+y,1/2-x,1/2+z
1/2-x,1/2-y,1/2-z
1/2+y,1/2-x,1/2-z
1/2+x,1/2+y,1/2-z
1/2-y,1/2+x,1/2-z
loop_
_atom_site_type_symbol
_atom_site_label
_atom_site_fract_x
_atom_site_fract_y
_atom_site_fract_z
Si Si1 0.999459 0.420291 0.180633
Si Si2 0.655991 0.530989 0.816623
Si Si3 0.332235 0.069162 0.686475
Si Si4 0.769125 0.050906 0.809508
Si Si5 0.665874 0.233623 0.800854
Si Si6 0.589412 0.503052 0.500000
Si Si7 0.148008 0.160316 0.307359
Si Si8 0.377195 0.173328 0.809968
O O1 0.947258 0.459512 0.193222
O O2 0.978556 0.360387 0.216560
O O3 0.022499 0.424325 0.000000
O O4 0.713139 0.501181 0.793378
O O5 0.622961 0.506602 0.666078
O O6 0.652405 0.595390 0.800225
O O7 0.636133 0.517377 0.000000
O O8 0.325377 0.052752 0.500000
O O9 0.280196 0.103105 0.744530
O O10 0.374206 0.119773 0.700486
O O11 0.814235 0.097774 0.785289
O O12 0.715340 0.078645 0.743920
O O13 0.764247 0.037274 0.000000
O O14 0.679974 0.293398 0.747655
O O15 0.696707 0.183395 0.721161
O O16 0.668902 0.230879 0.000000
O O17 0.549919 0.553838 0.500000
O O18 0.141682 0.174761 0.500000
O O19 0.382447 0.159130 0.000000
#
# Coordination Sequence:
#
# PCOD9545778 Si02
#       8
#    16  16  16  16  16   8  16  16
#     4  11  21  35  56  83 112 150 198 249 300 357
#     4  11  24  43  65  94 130 167 215 269 327 395
#     4   9  18  37  58  81 117 155 196 251 306 364
#     4  12  24  40  64  92 126 170 213 262 321 382
#     4   8  18  38  60  86 122 158 203 252 304 368
#     4  11  24  42  66  96 128 166 214 268 327 394
#     4  10  22  41  66  93 124 166 210 262 324 383
#     4  10  20  37  59  88 122 160 208 253 304 368
#
# _framework density 23.823456
#
# number of rings (size 3 to 8) (size 9 to 14) (size 15 to 20)
#    0.800    1.000    0.667    4.800    0.933    2.667 
#    2.400    0.667    0.000    0.000    0.000    0.000 
#    0.000    0.000    0.000    0.000    0.000    0.000 
#
# Total GULP energy -335185.293327 kJ/mol
# GULP energy per Si atom -5586.421555 kJ/mol
# Density = 2.376923 g / cm^3
# Si number density = 23.823456 Si / 1000 Ang^3
#
#
#
# Elastic Constant Matrix: (Units=GPa)
#
#
# Indices 1 2 3 4 5 6 
#
# 1 66.9342 37.6569 14.0500 0.0000 0.0000 -9.4659
# 2 37.6569 66.9342 14.0500 0.0000 0.0000 9.4659
# 3 14.0500 14.0500 110.9809 0.0000 0.0000 0.0000
# 4 0.0000 0.0000 0.0000 13.1946 0.0000 0.0000
# 5 0.0000 0.0000 0.0000 0.0000 13.1946 0.0000
# 6 -9.4659 9.4659 0.0000 0.0000 0.0000 40.2404
#
#
#
# Elastic Compliance Matrix: (Units=1/GPa)
#
#
# Indices 1 2 3 4 5 6 
#
# 1 0.025091 -0.015193 -0.001253 0.000000 0.000000 0.009476
# 2 -0.015193 0.025091 -0.001253 0.000000 0.000000 -0.009476
# 3 -0.001253 -0.001253 0.009328 0.000000 0.000000 0.000000
# 4 0.000000 0.000000 0.000000 0.075788 0.000000 0.000000
# 5 0.000000 0.000000 0.000000 0.000000 0.075788 0.000000
# 6 0.009476 -0.009476 0.000000 0.000000 0.000000 0.029309
#
#
# Mechanical properties :
#
#
# Convention : Reuss Voigt Hill
#
# Bulk Modulus (GPa) = 41.47467 41.81808 41.64638
# Shear Modulus (GPa) = 17.61616 25.26541 21.44079
#
# Velocity S-wave (km/s) = 2.72223 3.26011 3.00323
# Velocity P-wave (km/s) = 5.22759 5.63582 5.43554
#
# Compressibility (1/GPa) = 0.02411110
#
# Stress axis : x y z
#
# Youngs Moduli (GPa) = 39.85540 39.85540 107.20613
#
# Poissons Ratio (x) = 0.60552 0.13433
# Poissons Ratio (y) = 0.60552 0.13433
# Poissons Ratio (z) = 0.04994 0.04994
#
# Static dielectric constant tensor:
#      x y z
#    x 1.972120 0.000000 0.000000 
#    y 0.000000 1.972120 0.000000 
#    z 0.000000 0.000000 1.846910 
# 
# From -- ./inp_files/1720.got.cif
#   From: 2010.05.17/outbox.cif.g08.bks.cpg/sg87_1_cif.got.tgz:1720.got - 2010.06.03 19:07:00.
