data_PCOD9545818
_publ_section_title
;
Structure prediction by ZEFSAII (Michael W. Deem and Ramdas Pophale) SiO2 
 PCOD9545818
Probable space group: I 4/M
;
_chemical_formula_sum "Si O2"
_cell_formula_units_Z 96
_cell_length_a 13.657072
_cell_length_b 13.657072
_cell_length_c 22.613267
_cell_angle_alpha 90.000000
_cell_angle_beta 90.000000
_cell_angle_gamma 90.000000
_cell_volume 4217.727416
_symmetry_space_group_name_H-M "I 4/M"
_symmetry_group_IT_number 87
_symmetry_cell_setting 'tetragonal'
loop_
_space_group_symop_operation_xyz
x,y,z
-y,x,z
-x,-y,z
y,-x,z
-x,-y,-z
y,-x,-z
x,y,-z
-y,x,-z
1/2+x,1/2+y,1/2+z
1/2-y,1/2+x,1/2+z
1/2-x,1/2-y,1/2+z
1/2+y,1/2-x,1/2+z
1/2-x,1/2-y,1/2-z
1/2+y,1/2-x,1/2-z
1/2+x,1/2+y,1/2-z
1/2-y,1/2+x,1/2-z
loop_
_atom_site_type_symbol
_atom_site_label
_atom_site_fract_x
_atom_site_fract_y
_atom_site_fract_z
Si Si1 0.095125 0.626734 0.389823
Si Si2 0.649440 0.932239 0.256004
Si Si3 0.071051 0.861025 0.787279
Si Si4 0.886962 0.579617 0.567757
Si Si5 0.895579 0.886672 0.352136
Si Si6 0.758821 0.228845 0.434035
O O1 0.094957 0.670124 0.324171
O O2 0.110174 0.510189 0.387497
O O3 0.185635 0.669286 0.426626
O O4 0.987805 0.638930 0.419354
O O5 0.548634 0.875527 0.241338
O O6 0.744054 0.908440 0.215471
O O7 0.098198 0.887522 0.718190
O O8 0.958677 0.873078 0.811420
O O9 0.893495 0.543328 0.500000
O O10 0.789292 0.643820 0.572351
O O11 0.832419 0.804372 0.381178
O O12 0.005576 0.867525 0.373370
O O13 0.782239 0.190459 0.500000
#
# Coordination Sequence:
#
# PCOD9545818 Si02
#       6
#    16  16  16  16  16  16
#     4  11  21  39  59  76 119 158 184 240 304 341
#     4  11  23  38  56  86 114 144 199 258 291 336
#     4   9  19  37  59  82 113 152 188 227 291 359
#     4  10  21  35  55  84 115 152 195 231 279 352
#     4   9  17  30  48  76 114 148 175 213 269 337
#     4  11  21  32  54  86 113 150 197 228 273 350
#
# _framework density 22.761071999999999
#
# number of rings (size 3 to 8) (size 9 to 14) (size 15 to 20)
#    0.000    1.833    1.667    6.000    2.333    2.667 
#    0.000    2.500    0.000    0.500    0.000    2.333 
#    0.000    0.000    0.000    0.000    0.000    0.000 
#
# Total GULP energy -267359.182362 kJ/mol
# GULP energy per Si atom -5569.982966 kJ/mol
# Density = 2.270927 g / cm^3
# Si number density = 22.761072 Si / 1000 Ang^3
#
#
#
# Elastic Constant Matrix: (Units=GPa)
#
#
# Indices 1 2 3 4 5 6 
#
# 1 64.9515 18.7070 -3.2783 0.0000 0.0000 5.4893
# 2 18.7070 64.9515 -3.2783 0.0000 0.0000 -5.4893
# 3 -3.2783 -3.2783 38.6496 0.0000 0.0000 0.0000
# 4 0.0000 0.0000 0.0000 21.0166 0.0000 0.0000
# 5 0.0000 0.0000 0.0000 0.0000 21.0166 0.0000
# 6 5.4893 -5.4893 0.0000 0.0000 0.0000 30.8295
#
#
#
# Elastic Compliance Matrix: (Units=1/GPa)
#
#
# Indices 1 2 3 4 5 6 
#
# 1 0.017306 -0.005273 0.001021 0.000000 0.000000 -0.004020
# 2 -0.005273 0.017306 0.001021 0.000000 0.000000 0.004020
# 3 0.001021 0.001021 0.026047 0.000000 0.000000 0.000000
# 4 0.000000 0.000000 0.000000 0.047582 0.000000 0.000000
# 5 0.000000 0.000000 0.000000 0.000000 0.047582 0.000000
# 6 -0.004020 0.004020 0.000000 0.000000 0.000000 0.033868
#
#
# Mechanical properties :
#
#
# Convention : Reuss Voigt Hill
#
# Bulk Modulus (GPa) = 18.45154 21.42817 19.93986
# Shear Modulus (GPa) = 23.34076 24.99934 24.17005
#
# Velocity S-wave (km/s) = 3.20577 3.31771 3.26222
# Velocity P-wave (km/s) = 4.67192 4.91031 4.79260
#
# Compressibility (1/GPa) = 0.05419601
#
# Stress axis : x y z
#
# Youngs Moduli (GPa) = 57.78352 57.78352 38.39270
#
# Poissons Ratio (x) = 0.30467 -0.03919
# Poissons Ratio (y) = 0.30467 -0.03919
# Poissons Ratio (z) = -0.05898 -0.05898
#
# Static dielectric constant tensor:
#      x y z
#    x 1.925170 0.000000 0.000000 
#    y 0.000000 1.925170 0.000000 
#    z 0.000000 0.000000 1.856680 
# 
# From -- ./inp_files/5323.got.cif
#   From: 2010.05.17/outbox.cif.g08.bks.cpg/sg87_3_cif.got.tgz:5323.got - 2010.06.03 19:07:00.
