data_PCOD9545132
_publ_section_title
;
Structure prediction by ZEFSAII (Michael W. Deem and Ramdas Pophale) SiO2 
 PCOD9545132
Probable space group: P 42/N
;
_chemical_formula_sum "Si O2"
_cell_formula_units_Z 40
_cell_length_a 16.308420
_cell_length_b 16.308420
_cell_length_c 6.667708
_cell_angle_alpha 90.000000
_cell_angle_beta 90.000000
_cell_angle_gamma 90.000000
_cell_volume 1773.374044
_symmetry_space_group_name_H-M "P 42/N"
_symmetry_group_IT_number 86
_space_group.IT_coordinate_system_code '2'
_symmetry_cell_setting 'tetragonal'
loop_
_space_group_symop_operation_xyz
x,y,z
-y,1/2+x,1/2+z
1/2-x,1/2-y,z
1/2+y,-x,1/2+z
-x,-y,-z
y,1/2-x,1/2-z
1/2+x,1/2+y,-z
1/2-y,x,1/2-z
loop_
_atom_site_type_symbol
_atom_site_label
_atom_site_fract_x
_atom_site_fract_y
_atom_site_fract_z
Si Si1 0.114449 0.896316 0.377101
Si Si2 0.527407 0.098719 0.731950
Si Si3 0.242558 0.945590 0.053274
Si Si4 0.232007 0.386877 0.261152
Si Si5 0.023647 0.124267 0.954370
O O1 0.095940 0.970298 0.529061
O O2 0.192909 0.917258 0.248421
O O3 0.114088 0.818726 0.522303
O O4 0.043881 0.872830 0.219103
O O5 0.561117 0.182410 0.636859
O O6 0.438330 0.089537 0.634298
O O7 0.579939 0.022824 0.640657
O O8 0.266204 0.040621 0.095622
O O9 0.317963 0.338346 0.274291
O O10 0.205676 0.433978 0.465034
#
# Coordination Sequence:
#
# PCOD9545132 Si02
#       5
#     8   8   8   8   8
#     4  11  25  43  74 100 143 193 247 307 359 435
#     4  10  21  41  70 104 139 188 241 297 346 437
#     4  11  25  45  70 105 141 193 245 297 369 430
#     4  11  23  44  74 110 153 185 231 309 372 443
#     4  10  21  41  70 107 136 189 247 284 366 430
#
# _framework density 22.555872999999998
#
# number of rings (size 3 to 8) (size 9 to 14) (size 15 to 20)
#    0.000    1.400    4.000    0.600    2.800    1.600 
#    0.000    3.000    0.000    2.400    0.000    0.000 
#    0.000    0.000    0.000    0.000    0.000    0.000 
#
# Total GULP energy -223570.143499 kJ/mol
# GULP energy per Si atom -5589.253587 kJ/mol
# Density = 2.250453 g / cm^3
# Si number density = 22.555873 Si / 1000 Ang^3
#
#
#
# Elastic Constant Matrix: (Units=GPa)
#
#
# Indices 1 2 3 4 5 6 
#
# 1 67.0152 37.4819 25.8702 0.0000 0.0000 -8.7951
# 2 37.4819 67.0152 25.8702 0.0000 0.0000 8.7951
# 3 25.8702 25.8702 115.7052 0.0000 0.0000 0.0000
# 4 0.0000 0.0000 0.0000 17.5174 0.0000 0.0000
# 5 0.0000 0.0000 0.0000 0.0000 17.5174 0.0000
# 6 -8.7951 8.7951 0.0000 0.0000 0.0000 30.3201
#
#
#
# Elastic Compliance Matrix: (Units=1/GPa)
#
#
# Indices 1 2 3 4 5 6 
#
# 1 0.025846 -0.015085 -0.002406 0.000000 0.000000 0.011873
# 2 -0.015085 0.025846 -0.002406 0.000000 0.000000 -0.011873
# 3 -0.002406 -0.002406 0.009719 0.000000 0.000000 0.000000
# 4 0.000000 0.000000 0.000000 0.057086 0.000000 0.000000
# 5 0.000000 0.000000 0.000000 0.000000 0.057086 0.000000
# 6 0.011873 -0.011873 0.000000 0.000000 0.000000 0.039870
#
#
# Mechanical properties :
#
#
# Convention : Reuss Voigt Hill
#
# Bulk Modulus (GPa) = 46.26113 47.57557 46.91835
# Shear Modulus (GPa) = 19.05098 23.77186 21.41142
#
# Velocity S-wave (km/s) = 2.90938 3.24992 3.08435
# Velocity P-wave (km/s) = 5.64270 5.93471 5.79054
#
# Compressibility (1/GPa) = 0.02161642
#
# Stress axis : x y z
#
# Youngs Moduli (GPa) = 38.69020 38.69020 102.89590
#
# Poissons Ratio (x) = 0.58366 0.24757
# Poissons Ratio (y) = 0.58366 0.24757
# Poissons Ratio (z) = 0.09309 0.09309
#
# Static dielectric constant tensor:
#      x y z
#    x 1.855070 0.000000 0.000000 
#    y 0.000000 1.855070 0.000000 
#    z 0.000000 0.000000 1.854660 
# 
# From -- ./inp_files/312.got.cif
#   From: 2010.05.17/outbox.cif.g08.bks.cpg/sg86_1_cif.got.tgz:312.got - 2010.06.03 19:03:11.
