data_PCOD9545075
_publ_section_title
;
Structure prediction by ZEFSAII (Michael W. Deem and Ramdas Pophale) SiO2 
 PCOD9545075
Probable space group: P 42/N
;
_chemical_formula_sum "Si O2"
_cell_formula_units_Z 64
_cell_length_a 11.501472
_cell_length_b 11.501472
_cell_length_c 23.606618
_cell_angle_alpha 90.000000
_cell_angle_beta 90.000000
_cell_angle_gamma 90.000000
_cell_volume 3122.774507
_symmetry_space_group_name_H-M "P 42/N"
_symmetry_group_IT_number 86
_space_group.IT_coordinate_system_code '2'
_symmetry_cell_setting 'tetragonal'
loop_
_space_group_symop_operation_xyz
x,y,z
-y,1/2+x,1/2+z
1/2-x,1/2-y,z
1/2+y,-x,1/2+z
-x,-y,-z
y,1/2-x,1/2-z
1/2+x,1/2+y,-z
1/2-y,x,1/2-z
loop_
_atom_site_type_symbol
_atom_site_label
_atom_site_fract_x
_atom_site_fract_y
_atom_site_fract_z
Si Si1 0.058827 0.212777 0.407794
Si Si2 0.153741 0.346006 0.979532
Si Si3 0.898026 0.979214 0.289009
Si Si4 0.428648 0.820094 0.098114
Si Si5 0.595856 0.406856 0.959686
Si Si6 0.839412 0.605496 0.779157
Si Si7 0.392530 0.234026 0.677867
Si Si8 0.844353 0.997100 0.063996
O O1 0.144335 0.150333 0.452652
O O2 0.105686 0.207188 0.343966
O O3 0.938074 0.142466 0.407703
O O4 0.019874 0.338689 0.432749
O O5 0.250000 0.250000 0.964130
O O6 0.217969 0.462319 0.959236
O O7 0.038199 0.331574 0.944227
O O8 0.830658 0.926037 0.235647
O O9 0.944855 0.863821 0.320161
O O10 0.813105 0.034938 0.336009
O O11 0.998138 0.071093 0.273829
O O12 0.370310 0.701853 0.078327
O O13 0.457328 0.423560 0.955874
O O14 0.629454 0.389459 0.025762
O O15 0.726362 0.599023 0.738552
O O16 0.250000 0.250000 0.670680
O O17 0.461234 0.165094 0.629106
#
# Coordination Sequence:
#
# PCOD9545075 Si02
#       8
#     8   8   8   8   8   8   8   8
#     4  10  24  39  62  90 118 170 219 262 323 390
#     4  11  20  35  62  89 122 159 209 262 316 394
#     4  11  23  38  68  97 126 175 218 270 340 398
#     4  11  21  40  60  90 130 166 210 272 334 384
#     4  10  21  37  60  92 124 167 210 265 322 393
#     4  10  25  48  65  86 126 177 228 275 319 383
#     4  12  21  37  65 101 136 173 211 275 341 403
#     4  10  21  36  56  94 133 160 206 265 324 379
#
# _framework density 20.494596999999999
#
# number of rings (size 3 to 8) (size 9 to 14) (size 15 to 20)
#    0.000    1.375    3.750    1.875    3.500    0.500 
#    2.250    1.875    0.000    0.000    0.000    0.000 
#    0.000    0.000    0.000    0.000    0.000    0.000 
#
# Total GULP energy -356458.546108 kJ/mol
# GULP energy per Si atom -5569.664783 kJ/mol
# Density = 2.044795 g / cm^3
# Si number density = 20.494597 Si / 1000 Ang^3
#
#
#
# Elastic Constant Matrix: (Units=GPa)
#
#
# Indices 1 2 3 4 5 6 
#
# 1 77.5765 28.2198 45.4024 0.0000 0.0000 -3.1365
# 2 28.2198 77.5765 45.4024 0.0000 0.0000 3.1365
# 3 45.4024 45.4024 158.7479 0.0000 0.0000 0.0000
# 4 0.0000 0.0000 0.0000 30.4298 0.0000 0.0000
# 5 0.0000 0.0000 0.0000 0.0000 30.4298 0.0000
# 6 -3.1365 3.1365 0.0000 0.0000 0.0000 26.3178
#
#
#
# Elastic Compliance Matrix: (Units=1/GPa)
#
#
# Indices 1 2 3 4 5 6 
#
# 1 0.016550 -0.004022 -0.003583 0.000000 0.000000 0.002452
# 2 -0.004022 0.016550 -0.003583 0.000000 0.000000 -0.002452
# 3 -0.003583 -0.003583 0.008349 0.000000 0.000000 0.000000
# 4 0.000000 0.000000 0.000000 0.032863 0.000000 0.000000
# 5 0.000000 0.000000 0.000000 0.000000 0.032863 0.000000
# 6 0.002452 -0.002452 0.000000 0.000000 0.000000 0.038581
#
#
# Mechanical properties :
#
#
# Convention : Reuss Voigt Hill
#
# Bulk Modulus (GPa) = 52.43316 61.32779 56.88048
# Shear Modulus (GPa) = 28.65520 30.42724 29.54122
#
# Velocity S-wave (km/s) = 3.74329 3.85729 3.80072
# Velocity P-wave (km/s) = 6.65750 7.05883 6.86110
#
# Compressibility (1/GPa) = 0.01907190
#
# Stress axis : x y z
#
# Youngs Moduli (GPa) = 60.42376 60.42376 119.77905
#
# Poissons Ratio (x) = 0.24305 0.42915
# Poissons Ratio (y) = 0.24305 0.42915
# Poissons Ratio (z) = 0.21649 0.21649
#
# Static dielectric constant tensor:
#      x y z
#    x 1.776970 0.000000 0.000000 
#    y 0.000000 1.776970 0.000000 
#    z 0.000000 0.000000 1.816410 
# 
# From -- ./inp_files/4678.got.cif
#   From: 2010.05.17/outbox.cif.g08.bks.cpg/sg86_3_cif.got.tgz:4678.got - 2010.06.03 19:03:11.
