data_PCOD9545414
_publ_section_title
;
Structure prediction by ZEFSAII (Michael W. Deem and Ramdas Pophale) SiO2 
 PCOD9545414
Probable space group: P 42/N
;
_chemical_formula_sum "Si O2"
_cell_formula_units_Z 54
_cell_length_a 13.654835
_cell_length_b 13.654835
_cell_length_c 12.772236
_cell_angle_alpha 90.000000
_cell_angle_beta 90.000000
_cell_angle_gamma 90.000000
_cell_volume 2381.441118
_symmetry_space_group_name_H-M "P 42/N"
_symmetry_group_IT_number 86
_space_group.IT_coordinate_system_code '2'
_symmetry_cell_setting 'tetragonal'
loop_
_space_group_symop_operation_xyz
x,y,z
-y,1/2+x,1/2+z
1/2-x,1/2-y,z
1/2+y,-x,1/2+z
-x,-y,-z
y,1/2-x,1/2-z
1/2+x,1/2+y,-z
1/2-y,x,1/2-z
loop_
_atom_site_type_symbol
_atom_site_label
_atom_site_fract_x
_atom_site_fract_y
_atom_site_fract_z
Si Si1 0.690394 0.895437 0.206047
Si Si2 0.912583 0.916839 0.511766
Si Si3 0.250000 0.750000 0.920453
Si Si4 0.890028 0.406668 0.312559
Si Si5 0.384230 0.085602 0.260527
Si Si6 0.319422 0.873024 0.252534
Si Si7 0.750000 0.750000 0.750000
Si Si8 0.078356 0.719822 0.057779
O O1 0.802862 0.870593 0.242038
O O2 0.653805 0.999685 0.251151
O O3 0.664091 0.907517 0.081535
O O4 0.911518 0.883081 0.632439
O O5 0.815214 0.979226 0.491293
O O6 0.000000 0.000000 0.500000
O O7 0.195229 0.829706 0.851578
O O8 0.169055 0.694269 0.985410
O O9 0.862199 0.294848 0.280510
O O10 0.835400 0.417998 0.422709
O O11 0.005611 0.411877 0.300952
O O12 0.322551 0.175147 0.306834
O O13 0.335332 0.983289 0.285635
O O14 0.394858 0.838449 0.164097
#
# Coordination Sequence:
#
# PCOD9545414 Si02
#       8
#     8   8   4   8   8   8   2   8
#     4  11  25  45  72 108 149 195 246 319 379 443
#     4  12  24  43  76 104 139 194 253 295 384 475
#     4  12  24  40  72 104 144 184 230 320 372 438
#     4  12  22  46  71 102 150 183 245 316 365 453
#     4  12  27  47  73 102 142 205 244 302 381 464
#     4  12  24  43  70 105 141 189 247 306 377 443
#     4  12  28  48  68  96 150 188 248 292 376 456
#     4  12  24  44  70 112 139 185 252 304 375 456
#
# _framework density 22.675345
#
# number of rings (size 3 to 8) (size 9 to 14) (size 15 to 20)
#    0.000    0.148    8.889    0.889    0.000    1.185 
#    0.000    0.741    0.000    0.000    0.000    0.000 
#    0.000    0.000    0.000    0.000    0.000    0.000 
#
# Total GULP energy -301532.822827 kJ/mol
# GULP energy per Si atom -5583.941163 kJ/mol
# Density = 2.262373 g / cm^3
# Si number density = 22.675345 Si / 1000 Ang^3
#
#
#
# Elastic Constant Matrix: (Units=GPa)
#
#
# Indices 1 2 3 4 5 6 
#
# 1 101.4918 26.0235 24.1606 0.0000 0.0000 -2.6125
# 2 26.0235 101.4918 24.1606 0.0000 0.0000 2.6125
# 3 24.1606 24.1606 79.9642 0.0000 0.0000 0.0000
# 4 0.0000 0.0000 0.0000-2216.4081 0.0000 0.0000
# 5 0.0000 0.0000 0.0000 0.0000-2216.4081 0.0000
# 6 -2.6125 2.6125 0.0000 0.0000 0.0000 43.9962
#
#
#
# Elastic Compliance Matrix: (Units=1/GPa)
#
#
# Indices 1 2 3 4 5 6 
#
# 1 0.011081 -0.002225 -0.002676 0.000000 0.000000 0.000790
# 2 -0.002225 0.011081 -0.002676 0.000000 0.000000 -0.000790
# 3 -0.002676 -0.002676 0.014123 0.000000 0.000000 0.000000
# 4 0.000000 0.000000 0.000000 -0.000451 0.000000 0.000000
# 5 0.000000 0.000000 0.000000 0.000000 -0.000451 0.000000
# 6 0.000790 -0.000790 0.000000 0.000000 0.000000 0.022823
#
#
# Mechanical properties :
#
#
# Convention : Reuss Voigt Hill
#
# Bulk Modulus (GPa) = 47.32247 47.95968 47.64108
# Shear Modulus (GPa) = 62.18820 -863.85714 -400.83447
#
# Velocity S-wave (km/s) = 5.24261 -19.53957 -13.30995
# Velocity P-wave (km/s) = 7.58693 22.08762 14.66802
#
# Compressibility (1/GPa) = 0.02113161
#
# Stress axis : x y z
#
# Youngs Moduli (GPa) = 90.24661 90.24661 70.80865
#
# Poissons Ratio (x) = 0.20076 0.18947
# Poissons Ratio (y) = 0.20076 0.18947
# Poissons Ratio (z) = 0.24148 0.24148
#
# Static dielectric constant tensor:
#      x y z
#    x 1.868300 0.000000 0.000000 
#    y 0.000000 1.868300 0.000000 
#    z 0.000000 0.000000 1.922190 
# 
# From -- ./inp_files/2419.got.cif
#   From: 2010.05.17/outbox.cif.g08.bks.cpg/sg86_2_cif.got.tgz:2419.got - 2010.06.03 19:03:11.
