data_PCOD9545055
_publ_section_title
;
Structure prediction by ZEFSAII (Michael W. Deem and Ramdas Pophale) SiO2 
 PCOD9545055
Probable space group: P 42/N
;
_chemical_formula_sum "Si O2"
_cell_formula_units_Z 40
_cell_length_a 17.476880
_cell_length_b 17.476880
_cell_length_c 6.712996
_cell_angle_alpha 90.000000
_cell_angle_beta 90.000000
_cell_angle_gamma 90.000000
_cell_volume 2050.426457
_symmetry_space_group_name_H-M "P 42/N"
_symmetry_group_IT_number 86
_space_group.IT_coordinate_system_code '2'
_symmetry_cell_setting 'tetragonal'
loop_
_space_group_symop_operation_xyz
x,y,z
-y,1/2+x,1/2+z
1/2-x,1/2-y,z
1/2+y,-x,1/2+z
-x,-y,-z
y,1/2-x,1/2-z
1/2+x,1/2+y,-z
1/2-y,x,1/2-z
loop_
_atom_site_type_symbol
_atom_site_label
_atom_site_fract_x
_atom_site_fract_y
_atom_site_fract_z
Si Si1 0.655984 0.421552 0.449307
Si Si2 0.102142 0.526152 0.360072
Si Si3 0.365045 0.431355 0.275352
Si Si4 0.210019 0.444527 0.074352
Si Si5 0.683532 0.069048 0.248695
O O1 0.593626 0.431455 0.273596
O O2 0.652765 0.498346 0.580370
O O3 0.737943 0.405734 0.352160
O O4 0.628251 0.352859 0.592680
O O5 0.056542 0.446545 0.335968
O O6 0.182036 0.502809 0.249442
O O7 0.122128 0.551960 0.579823
O O8 0.295885 0.421049 0.122059
O O9 0.378509 0.353551 0.401928
O O10 0.200757 0.490978 0.871512
#
# Coordination Sequence:
#
# PCOD9545055 Si02
#       5
#     8   8   8   8   8
#     4  11  23  42  68  94 131 173 223 270 326 389
#     4   9  22  40  63  98 119 177 214 266 322 390
#     4  10  20  44  66  96 133 168 217 270 326 389
#     4   9  22  40  63  98 130 165 211 269 317 391
#     4  11  24  42  65  95 133 169 220 277 329 380
#
# _framework density 19.508137999999999
#
# number of rings (size 3 to 8) (size 9 to 14) (size 15 to 20)
#    1.200    0.800    2.000    0.600    2.800    2.800 
#    0.000    3.000    0.000    2.400    0.000    0.000 
#    0.000    0.000    0.000    0.000    0.000    0.000 
#
# Total GULP energy -223018.971999 kJ/mol
# GULP energy per Si atom -5575.474300 kJ/mol
# Density = 1.946374 g / cm^3
# Si number density = 19.508138 Si / 1000 Ang^3
#
#
#
# Elastic Constant Matrix: (Units=GPa)
#
#
# Indices 1 2 3 4 5 6 
#
# 1 97.0872 57.1597 42.4772 0.0000 0.0000 15.0461
# 2 57.1597 97.0872 42.4772 0.0000 0.0000 -15.0461
# 3 42.4772 42.4772 96.0011 0.0000 0.0000 0.0000
# 4 0.0000 0.0000 0.0000 20.9930 0.0000 0.0000
# 5 0.0000 0.0000 0.0000 0.0000 20.9930 0.0000
# 6 15.0461 -15.0461 0.0000 0.0000 0.0000 9.1813
#
#
#
# Elastic Compliance Matrix: (Units=1/GPa)
#
#
# Indices 1 2 3 4 5 6 
#
# 1 -0.048981 0.057553 -0.003793 0.000000 0.000000 0.174584
# 2 0.057553 -0.048981 -0.003793 0.000000 0.000000 -0.174584
# 3 -0.003793 -0.003793 0.013773 0.000000 0.000000 0.000000
# 4 0.000000 0.000000 0.000000 0.047635 0.000000 0.000000
# 5 0.000000 0.000000 0.000000 0.000000 0.047635 0.000000
# 6 0.174584 -0.174584 0.000000 0.000000 0.000000 -0.463291
#
#
# Mechanical properties :
#
#
# Convention : Reuss Voigt Hill
#
# Bulk Modulus (GPa) = 63.50929 63.82263 63.66596
# Shear Modulus (GPa) = -9.14252 20.10421 5.48085
#
# Velocity S-wave (km/s) = -2.16719 3.21371 1.67798
# Velocity P-wave (km/s) = 5.13456 6.82330 6.03826
#
# Compressibility (1/GPa) = 0.01574573
#
# Stress axis : x y z
#
# Youngs Moduli (GPa) = -20.41624 -20.41624 72.60598
#
# Poissons Ratio (x) = 1.17501 0.27538
# Poissons Ratio (y) = 1.17501 0.27538
# Poissons Ratio (z) = -0.07744 -0.07744
#
# Static dielectric constant tensor:
#      x y z
#    x 1.684300 0.000000 0.000000 
#    y 0.000000 1.684300 0.000000 
#    z 0.000000 0.000000 1.674170 
# 
# From -- ./inp_files/301.got.cif
#   From: 2010.05.17/outbox.cif.g08.bks.cpg/sg86_1_cif.got.tgz:301.got - 2010.06.03 19:03:11.
