data_PCOD9545981
_publ_section_title
;
Structure prediction by ZEFSAII (Michael W. Deem and Ramdas Pophale) SiO2 
 PCOD9545981
Probable space group: I 4/M
;
_chemical_formula_sum "Si O2"
_cell_formula_units_Z 88
_cell_length_a 12.425642
_cell_length_b 12.425642
_cell_length_c 29.597073
_cell_angle_alpha 90.000000
_cell_angle_beta 90.000000
_cell_angle_gamma 90.000000
_cell_volume 4569.686823
_symmetry_space_group_name_H-M "I 4/M"
_symmetry_group_IT_number 87
_symmetry_cell_setting 'tetragonal'
loop_
_space_group_symop_operation_xyz
x,y,z
-y,x,z
-x,-y,z
y,-x,z
-x,-y,-z
y,-x,-z
x,y,-z
-y,x,-z
1/2+x,1/2+y,1/2+z
1/2-y,1/2+x,1/2+z
1/2-x,1/2-y,1/2+z
1/2+y,1/2-x,1/2+z
1/2-x,1/2-y,1/2-z
1/2+y,1/2-x,1/2-z
1/2+x,1/2+y,1/2-z
1/2-y,1/2+x,1/2-z
loop_
_atom_site_type_symbol
_atom_site_label
_atom_site_fract_x
_atom_site_fract_y
_atom_site_fract_z
Si Si1 0.829975 0.058753 0.795820
Si Si2 0.131187 0.814509 0.500000
Si Si3 0.343402 0.978889 0.730386
Si Si4 0.000000 0.500000 0.077493
Si Si5 0.064888 0.347158 0.500000
Si Si6 0.100721 0.861745 0.603252
Si Si7 0.143816 0.364232 0.854612
O O1 0.741736 0.093584 0.832460
O O2 0.935706 0.131380 0.799471
O O3 0.768554 0.068361 0.747682
O O4 0.054752 0.708734 0.500000
O O5 0.101306 0.862855 0.548742
O O6 0.259619 0.839321 0.500000
O O7 0.386937 0.065278 0.768066
O O8 0.339785 0.047078 0.684958
O O9 0.932317 0.580703 0.108479
O O10 0.919966 0.434840 0.044559
O O11 0.160399 0.758579 0.622512
O O12 0.976347 0.854115 0.618152
#
# Coordination Sequence:
#
# PCOD9545981 Si02
#       7
#    16   8  16   8   8  16  16
#     4  10  23  41  59  84 119 163 208 249 292 356
#     4  12  18  39  56  88 116 166 188 244 305 377
#     4   9  19  37  60  84 108 148 190 243 308 365
#     4  11  22  42  55  94 120 162 201 260 288 369
#     4  11  24  35  64  82 128 160 207 240 310 367
#     4  11  22  35  57  91 124 153 191 248 315 377
#     4  11  22  37  62  85 121 156 198 252 309 359
#
# _framework density 19.257338000000001
#
# number of rings (size 3 to 8) (size 9 to 14) (size 15 to 20)
#    0.000    1.455    3.636    2.182    0.000    9.636 
#    0.000    1.818    0.000    0.000    0.000    0.000 
#    0.000    7.273    0.000    0.000    0.000    0.000 
#
# Total GULP energy -245448.268731 kJ/mol
# GULP energy per Si atom -5578.369744 kJ/mol
# Density = 1.921351 g / cm^3
# Si number density = 19.257338 Si / 1000 Ang^3
#
#
#
# Elastic Constant Matrix: (Units=GPa)
#
#
# Indices 1 2 3 4 5 6 
#
# 1 87.5971 26.7453 32.3756 0.0000 0.0000 8.5937
# 2 26.7453 87.5971 32.3756 0.0000 0.0000 -8.5937
# 3 32.3756 32.3756 72.9420 0.0000 0.0000 0.0000
# 4 0.0000 0.0000 0.0000 10.3864 0.0000 0.0000
# 5 0.0000 0.0000 0.0000 0.0000 10.3864 0.0000
# 6 8.5937 -8.5937 0.0000 0.0000 0.0000 17.2000
#
#
#
# Elastic Compliance Matrix: (Units=1/GPa)
#
#
# Indices 1 2 3 4 5 6 
#
# 1 0.015408 -0.003726 -0.005185 0.000000 0.000000 -0.009560
# 2 -0.003726 0.015408 -0.005185 0.000000 0.000000 0.009560
# 3 -0.005185 -0.005185 0.018312 0.000000 0.000000 0.000000
# 4 0.000000 0.000000 0.000000 0.096279 0.000000 0.000000
# 5 0.000000 0.000000 0.000000 0.000000 0.096279 0.000000
# 6 -0.009560 0.009560 0.000000 0.000000 0.000000 0.067692
#
#
# Mechanical properties :
#
#
# Convention : Reuss Voigt Hill
#
# Bulk Modulus (GPa) = 47.76479 47.90325 47.83402
# Shear Modulus (GPa) = 14.51171 18.03722 16.27447
#
# Velocity S-wave (km/s) = 2.74810 3.06378 2.91022
# Velocity P-wave (km/s) = 5.90988 6.11923 6.01546
#
# Compressibility (1/GPa) = 0.02093592
#
# Stress axis : x y z
#
# Youngs Moduli (GPa) = 64.90258 64.90258 54.60795
#
# Poissons Ratio (x) = 0.24181 0.28315
# Poissons Ratio (y) = 0.24181 0.28315
# Poissons Ratio (z) = 0.33652 0.33652
#
# Static dielectric constant tensor:
#      x y z
#    x 1.688990 0.000000 0.000000 
#    y 0.000000 1.688990 0.000000 
#    z 0.000000 0.000000 1.667700 
# 
# From -- ./inp_files/6626.got.cif
#   From: 2010.05.17/outbox.cif.g08.bks.cpg/sg87_4_cif.got.tgz:6626.got - 2010.06.03 19:07:00.
