data_PCOD9546085
_publ_section_title
;
Structure prediction by ZEFSAII (Michael W. Deem and Ramdas Pophale) SiO2 
 PCOD9546085
Probable space group: I 4/M
;
_chemical_formula_sum "Si O2"
_cell_formula_units_Z 88
_cell_length_a 12.405077
_cell_length_b 12.405077
_cell_length_c 27.696197
_cell_angle_alpha 90.000000
_cell_angle_beta 90.000000
_cell_angle_gamma 90.000000
_cell_volume 4262.055182
_symmetry_space_group_name_H-M "I 4/M"
_symmetry_group_IT_number 87
_symmetry_cell_setting 'tetragonal'
loop_
_space_group_symop_operation_xyz
x,y,z
-y,x,z
-x,-y,z
y,-x,z
-x,-y,-z
y,-x,-z
x,y,-z
-y,x,-z
1/2+x,1/2+y,1/2+z
1/2-y,1/2+x,1/2+z
1/2-x,1/2-y,1/2+z
1/2+y,1/2-x,1/2+z
1/2-x,1/2-y,1/2-z
1/2+y,1/2-x,1/2-z
1/2+x,1/2+y,1/2-z
1/2-y,1/2+x,1/2-z
loop_
_atom_site_type_symbol
_atom_site_label
_atom_site_fract_x
_atom_site_fract_y
_atom_site_fract_z
Si Si1 0.734272 0.859996 0.654404
Si Si2 0.776162 0.419992 0.894232
Si Si3 0.979302 0.323579 0.139099
Si Si4 0.039430 0.824589 0.949728
Si Si5 0.335597 0.073000 0.245228
Si Si6 0.443318 0.324390 0.000000
O O1 0.814628 0.773222 0.631741
O O2 0.607919 0.840259 0.641755
O O3 0.733467 0.872187 0.712642
O O4 0.769747 0.972663 0.630462
O O5 0.902815 0.420224 0.879760
O O6 0.743784 0.421993 0.950821
O O7 0.951924 0.237652 0.098914
O O8 0.939610 0.288389 0.192073
O O9 0.921735 0.877019 0.950407
O O10 0.053450 0.760875 0.000000
O O11 0.450611 0.133463 0.239326
O O12 0.567620 0.368136 0.000000
#
# Coordination Sequence:
#
# PCOD9546085 Si02
#       6
#    16  16  16  16  16   8
#     4  11  24  43  65  98 131 172 221 265 327 388
#     4  12  24  43  68  97 131 170 224 268 317 392
#     4  11  22  40  65  97 129 163 213 274 325 384
#     4   9  19  38  59  83 123 171 210 254 322 391
#     4   9  18  38  64  88 127 169 203 253 327 387
#     4  11  24  46  69  91 133 182 217 264 331 401
#
# _framework density 20.647317000000001
#
# number of rings (size 3 to 8) (size 9 to 14) (size 15 to 20)
#    0.000    1.545    3.636    2.182    1.273    1.091 
#    6.545    0.909    0.000    0.000    0.000    0.000 
#    0.000    0.000    0.000    0.000    0.000    0.000 
#
# Total GULP energy -245467.402225 kJ/mol
# GULP energy per Si atom -5578.804596 kJ/mol
# Density = 2.060032 g / cm^3
# Si number density = 20.647317 Si / 1000 Ang^3
#
#
#
# Elastic Constant Matrix: (Units=GPa)
#
#
# Indices 1 2 3 4 5 6 
#
# 1 85.3548 13.0750 45.6359 0.0000 0.0000 -4.0539
# 2 13.0750 85.3548 45.6359 0.0000 0.0000 4.0539
# 3 45.6359 45.6359 191.3229 0.0000 0.0000 0.0000
# 4 0.0000 0.0000 0.0000 84.1242 0.0000 0.0000
# 5 0.0000 0.0000 0.0000 0.0000 84.1242 0.0000
# 6 -4.0539 4.0539 0.0000 0.0000 0.0000 30.0713
#
#
#
# Elastic Compliance Matrix: (Units=1/GPa)
#
#
# Indices 1 2 3 4 5 6 
#
# 1 0.013546 -0.000501 -0.003112 0.000000 0.000000 0.001894
# 2 -0.000501 0.013546 -0.003112 0.000000 0.000000 -0.001894
# 3 -0.003112 -0.003112 0.006711 0.000000 0.000000 0.000000
# 4 0.000000 0.000000 0.000000 0.011887 0.000000 0.000000
# 5 0.000000 0.000000 0.000000 0.000000 0.011887 0.000000
# 6 0.001894 -0.001894 0.000000 0.000000 0.000000 0.033765
#
#
# Mechanical properties :
#
#
# Convention : Reuss Voigt Hill
#
# Bulk Modulus (GPa) = 49.12909 63.41404 56.27156
# Shear Modulus (GPa) = 44.81226 56.84299 50.82763
#
# Velocity S-wave (km/s) = 4.66377 5.25264 4.96694
# Velocity P-wave (km/s) = 7.26960 8.21989 7.75931
#
# Compressibility (1/GPa) = 0.02035454
#
# Stress axis : x y z
#
# Youngs Moduli (GPa) = 73.82155 73.82155 149.00570
#
# Poissons Ratio (x) = 0.03701 0.46364
# Poissons Ratio (y) = 0.03701 0.46364
# Poissons Ratio (z) = 0.22970 0.22970
#
# Static dielectric constant tensor:
#      x y z
#    x 1.798160 0.000000 0.000000 
#    y 0.000000 1.798160 0.000000 
#    z 0.000000 0.000000 1.755400 
# 
# From -- ./inp_files/6579.got.cif
#   From: 2010.05.17/outbox.cif.g08.bks.cpg/sg87_4_cif.got.tgz:6579.got - 2010.06.03 19:07:00.
