data_PCOD9546646
_publ_section_title
;
Structure prediction by ZEFSAII (Michael W. Deem and Ramdas Pophale) SiO2 
 PCOD9546646
Probable space group: I 41/A
;
_chemical_formula_sum "Si O2"
_cell_formula_units_Z 108
_cell_length_a 14.612371
_cell_length_b 14.612371
_cell_length_c 22.185788
_cell_angle_alpha 90.000000
_cell_angle_beta 90.000000
_cell_angle_gamma 90.000000
_cell_volume 4737.140209
_symmetry_space_group_name_H-M "I 41/A"
_symmetry_group_IT_number 88
_space_group.IT_coordinate_system_code '2'
_symmetry_cell_setting 'tetragonal'
loop_
_space_group_symop_operation_xyz
x,y,z
3/4-y,1/4+x,1/4+z
-x,1/2-y,z
1/4+y,1/4-x,1/4+z
-x,-y,-z
1/4+y,3/4-x,3/4-z
x,1/2+y,-z
3/4-y,3/4+x,3/4-z
1/2+x,1/2+y,1/2+z
1/4-y,3/4+x,3/4+z
1/2-x,-y,1/2+z
3/4+y,3/4-x,3/4+z
1/2-x,1/2-y,1/2-z
3/4+y,1/4-x,1/4-z
1/2+x,y,1/2-z
1/4-y,1/4+x,1/4-z
loop_
_atom_site_type_symbol
_atom_site_label
_atom_site_fract_x
_atom_site_fract_y
_atom_site_fract_z
Si Si1 0.919067 0.531969 0.749830
Si Si2 0.905018 0.422558 0.327863
Si Si3 0.243358 0.641568 0.760603
Si Si4 0.432788 0.616965 0.623345
Si Si5 0.500000 0.250000 0.115077
Si Si6 0.999008 0.054163 0.589711
Si Si7 0.500000 0.750000 0.125000
Si Si8 0.144655 0.159298 0.781615
O O1 0.844583 0.604697 0.726927
O O2 0.935602 0.551925 0.819834
O O3 0.868715 0.435844 0.749063
O O4 0.015223 0.539370 0.716134
O O5 0.808091 0.409550 0.294863
O O6 0.940928 0.322059 0.346903
O O7 0.916297 0.490908 0.384792
O O8 0.250000 0.750000 0.750000
O O9 0.177666 0.630115 0.818143
O O10 0.389283 0.712774 0.643986
O O11 0.566111 0.307904 0.071948
O O12 0.018287 0.139167 0.633339
O O13 0.980566 0.096378 0.523580
O O14 0.080012 0.981940 0.575778
#
# Coordination Sequence:
#
# PCOD9546646 Si02
#       8
#    16  16  16  16   8  16   4  16
#     4  12  26  43  72 104 144 182 238 296 355 423
#     4  11  25  45  67 108 141 190 239 300 358 433
#     4  12  26  43  69 105 142 190 237 289 362 427
#     4  11  24  45  68  99 144 188 231 288 350 434
#     4  10  23  44  76  92 146 186 239 298 360 424
#     4  10  24  44  69  99 139 182 241 292 361 432
#     4  12  22  40  76  92 136 188 222 292 364 426
#     4  10  24  46  67 103 134 186 236 297 358 431
#
# _framework density 22.798565
#
# number of rings (size 3 to 8) (size 9 to 14) (size 15 to 20)
#    0.000    1.037    2.963    2.222    8.296    1.185 
#    5.333    0.000    0.000    0.000    0.000    0.000 
#    0.000    0.000    0.000    0.000    0.000    0.000 
#
# Total GULP energy -301449.336591 kJ/mol
# GULP energy per Si atom -5582.395122 kJ/mol
# Density = 2.274667 g / cm^3
# Si number density = 22.798565 Si / 1000 Ang^3
#
#
#
# Elastic Constant Matrix: (Units=GPa)
#
#
# Indices 1 2 3 4 5 6 
#
# 1 82.0858 5.3921 -4.3107 0.0000 0.0000 -2.0595
# 2 5.3921 82.0858 -4.3107 0.0000 0.0000 2.0595
# 3 -4.3107 -4.3107 54.8848 0.0000 0.0000 0.0000
# 4 0.0000 0.0000 0.0000 28.1544 0.0000 0.0000
# 5 0.0000 0.0000 0.0000 0.0000 28.1544 0.0000
# 6 -2.0595 2.0595 0.0000 0.0000 0.0000 18.3066
#
#
#
# Elastic Compliance Matrix: (Units=1/GPa)
#
#
# Indices 1 2 3 4 5 6 
#
# 1 0.012319 -0.000799 0.000905 0.000000 0.000000 0.001476
# 2 -0.000799 0.012319 0.000905 0.000000 0.000000 -0.001476
# 3 0.000905 0.000905 0.018362 0.000000 0.000000 0.000000
# 4 0.000000 0.000000 0.000000 0.035518 0.000000 0.000000
# 5 0.000000 0.000000 0.000000 0.000000 0.035518 0.000000
# 6 0.001476 -0.001476 0.000000 0.000000 0.000000 0.054957
#
#
# Mechanical properties :
#
#
# Convention : Reuss Voigt Hill
#
# Bulk Modulus (GPa) = 22.21098 23.62197 22.91647
# Shear Modulus (GPa) = 27.47542 29.74211 28.60877
#
# Velocity S-wave (km/s) = 3.47528 3.61579 3.54623
# Velocity P-wave (km/s) = 5.08594 5.27405 5.18085
#
# Compressibility (1/GPa) = 0.04502279
#
# Stress axis : x y z
#
# Youngs Moduli (GPa) = 81.17286 81.17286 54.45991
#
# Poissons Ratio (x) = 0.06484 -0.04928
# Poissons Ratio (y) = 0.06484 -0.04928
# Poissons Ratio (z) = -0.07345 -0.07345
#
# Static dielectric constant tensor:
#      x y z
#    x 1.892360 0.000000 0.000000 
#    y 0.000000 1.892360 0.000000 
#    z 0.000000 0.000000 1.897330 
# 
# From -- ./inp_files/5378.got.cif
#   From: 2010.05.17/outbox.cif.g08.bks.cpg/sg88_3_cif.got.tgz:5378.got - 2010.06.03 19:11:41.
