data_PCOD9546761
_publ_section_title
;
Structure prediction by ZEFSAII (Michael W. Deem and Ramdas Pophale) SiO2 
 PCOD9546761
Probable space group: I 41/A
;
_chemical_formula_sum "Si O2"
_cell_formula_units_Z 80
_cell_length_a 27.072587
_cell_length_b 27.072587
_cell_length_c 4.885647
_cell_angle_alpha 90.000000
_cell_angle_beta 90.000000
_cell_angle_gamma 90.000000
_cell_volume 3580.812666
_symmetry_space_group_name_H-M "I 41/A"
_symmetry_group_IT_number 88
_space_group.IT_coordinate_system_code '2'
_symmetry_cell_setting 'tetragonal'
loop_
_space_group_symop_operation_xyz
x,y,z
3/4-y,1/4+x,1/4+z
-x,1/2-y,z
1/4+y,1/4-x,1/4+z
-x,-y,-z
1/4+y,3/4-x,3/4-z
x,1/2+y,-z
3/4-y,3/4+x,3/4-z
1/2+x,1/2+y,1/2+z
1/4-y,3/4+x,3/4+z
1/2-x,-y,1/2+z
3/4+y,3/4-x,3/4+z
1/2-x,1/2-y,1/2-z
3/4+y,1/4-x,1/4-z
1/2+x,y,1/2-z
1/4-y,1/4+x,1/4-z
loop_
_atom_site_type_symbol
_atom_site_label
_atom_site_fract_x
_atom_site_fract_y
_atom_site_fract_z
Si Si1 0.597273 0.522178 0.763350
Si Si2 0.401625 0.103227 0.326266
Si Si3 0.834383 0.675330 0.515126
Si Si4 0.775129 0.927919 0.126899
Si Si5 0.823414 0.789279 0.417470
O O1 0.592332 0.538710 0.453066
O O2 0.552156 0.484518 0.809974
O O3 0.592973 0.569957 0.961264
O O4 0.646082 0.493819 0.862971
O O5 0.380387 0.151615 0.174942
O O6 0.358249 0.062518 0.283550
O O7 0.421723 0.101350 0.633487
O O8 0.448246 0.087068 0.142546
O O9 0.835998 0.734089 0.500835
O O10 0.803690 0.976771 0.220045
#
# Coordination Sequence:
#
# PCOD9546761 Si02
#       5
#    16  16  16  16  16
#     4  11  23  40  63  96 125 170 223 256 310 373
#     4  11  25  43  62  98 127 168 219 255 320 386
#     4  12  23  43  67  92 127 166 214 274 318 368
#     4  11  25  38  60  93 137 183 208 250 302 379
#     4  11  24  42  67  92 128 166 213 271 321 370
#
# _framework density 22.341297000000001
#
# number of rings (size 3 to 8) (size 9 to 14) (size 15 to 20)
#    0.000    0.800    2.000    6.000    5.600    0.000 
#    0.000    0.000    0.000    3.600    0.000    0.000 
#    0.000    0.000    0.000    0.000    0.000    0.000 
#
# Total GULP energy -223978.702345 kJ/mol
# GULP energy per Si atom -5599.467559 kJ/mol
# Density = 2.229045 g / cm^3
# Si number density = 22.341297 Si / 1000 Ang^3
#
#
#
# Elastic Constant Matrix: (Units=GPa)
#
#
# Indices 1 2 3 4 5 6 
#
# 1 108.6950 20.0068 9.1867 0.0000 0.0000 7.4672
# 2 20.0068 108.6950 9.1867 0.0000 0.0000 -7.4672
# 3 9.1867 9.1867 89.9500 0.0000 0.0000 0.0000
# 4 0.0000 0.0000 0.0000 22.4206 0.0000 0.0000
# 5 0.0000 0.0000 0.0000 0.0000 22.4206 0.0000
# 6 7.4672 -7.4672 0.0000 0.0000 0.0000 15.5908
#
#
#
# Elastic Compliance Matrix: (Units=1/GPa)
#
#
# Indices 1 2 3 4 5 6 
#
# 1 0.010075 -0.002190 -0.000805 0.000000 0.000000 -0.005874
# 2 -0.002190 0.010075 -0.000805 0.000000 0.000000 0.005874
# 3 -0.000805 -0.000805 0.011282 0.000000 0.000000 0.000000
# 4 0.000000 0.000000 0.000000 0.044602 0.000000 0.000000
# 5 0.000000 0.000000 0.000000 0.000000 0.044602 0.000000
# 6 -0.005874 0.005874 0.000000 0.000000 0.000000 0.069767
#
#
# Mechanical properties :
#
#
# Convention : Reuss Voigt Hill
#
# Bulk Modulus (GPa) = 41.96331 42.67782 42.32057
# Shear Modulus (GPa) = 24.27812 30.01703 27.14758
#
# Velocity S-wave (km/s) = 3.30008 3.66945 3.48965
# Velocity P-wave (km/s) = 5.77445 6.09075 5.93471
#
# Compressibility (1/GPa) = 0.02383034
#
# Stress axis : x y z
#
# Youngs Moduli (GPa) = 99.25811 99.25811 88.63851
#
# Poissons Ratio (x) = 0.21736 0.07138
# Poissons Ratio (y) = 0.21736 0.07138
# Poissons Ratio (z) = 0.07993 0.07993
#
# Static dielectric constant tensor:
#      x y z
#    x 1.825300 0.000000 0.000000 
#    y 0.000000 1.825300 0.000000 
#    z 0.000000 0.000000 1.819650 
# 
# From -- ./inp_files/681.got.cif
#   From: 2010.05.17/outbox.cif.g08.bks.cpg/sg88_1_cif.got.tgz:681.got - 2010.06.03 19:11:41.
