data_PCOD9546228
_publ_section_title
;
Structure prediction by ZEFSAII (Michael W. Deem and Ramdas Pophale) SiO2 
 PCOD9546228
Probable space group: I 41/A
;
_chemical_formula_sum "Si O2"
_cell_formula_units_Z 128
_cell_length_a 17.006960
_cell_length_b 17.006960
_cell_length_c 21.288317
_cell_angle_alpha 90.000000
_cell_angle_beta 90.000000
_cell_angle_gamma 90.000000
_cell_volume 6157.362312
_symmetry_space_group_name_H-M "I 41/A"
_symmetry_group_IT_number 88
_space_group.IT_coordinate_system_code '2'
_symmetry_cell_setting 'tetragonal'
loop_
_space_group_symop_operation_xyz
x,y,z
3/4-y,1/4+x,1/4+z
-x,1/2-y,z
1/4+y,1/4-x,1/4+z
-x,-y,-z
1/4+y,3/4-x,3/4-z
x,1/2+y,-z
3/4-y,3/4+x,3/4-z
1/2+x,1/2+y,1/2+z
1/4-y,3/4+x,3/4+z
1/2-x,-y,1/2+z
3/4+y,3/4-x,3/4+z
1/2-x,1/2-y,1/2-z
3/4+y,1/4-x,1/4-z
1/2+x,y,1/2-z
1/4-y,1/4+x,1/4-z
loop_
_atom_site_type_symbol
_atom_site_label
_atom_site_fract_x
_atom_site_fract_y
_atom_site_fract_z
Si Si1 0.156588 0.492209 0.218037
Si Si2 0.697280 0.577305 0.000791
Si Si3 0.382179 0.199368 0.704803
Si Si4 0.428223 0.146235 0.216238
Si Si5 0.479996 0.363313 0.406870
Si Si6 0.833638 0.159259 0.930424
Si Si7 0.557904 0.140020 0.676468
Si Si8 0.250403 0.131888 0.362762
O O1 0.235772 0.534024 0.241742
O O2 0.118994 0.434011 0.269391
O O3 0.093475 0.556220 0.195122
O O4 0.189993 0.433675 0.164391
O O5 0.604586 0.592326 0.006736
O O6 0.725380 0.605546 0.931831
O O7 0.748648 0.631071 0.046976
O O8 0.332623 0.190097 0.640839
O O9 0.466829 0.157865 0.691020
O O10 0.396589 0.290973 0.714331
O O11 0.405940 0.205945 0.271878
O O12 0.520342 0.123311 0.218651
O O13 0.407717 0.178781 0.147484
O O14 0.563739 0.330210 0.387140
O O15 0.463798 0.453822 0.391647
O O16 0.882398 0.077872 0.929579
#
# Coordination Sequence:
#
# PCOD9546228 Si02
#       8
#    16  16  16  16  16  16  16  16
#     4  10  20  33  53  77 103 137 176 221 266 316
#     4  10  18  33  53  74 105 135 170 219 266 312
#     4   9  20  34  52  77 104 136 174 219 265 320
#     4  10  20  35  54  76 106 144 177 221 269 309
#     4  10  21  34  53  79 109 144 182 221 267 320
#     4   9  18  32  53  74  97 136 176 208 259 315
#     4  10  20  35  53  78 107 137 181 220 265 326
#     4   9  19  33  49  76 103 133 174 216 263 316
#
# _framework density 20.788122000000001
#
# number of rings (size 3 to 8) (size 9 to 14) (size 15 to 20)
#    0.000    2.375    0.000    2.250    0.000    8.500 
#    0.000    0.000    0.000   18.750    0.000    0.000 
#    0.000   22.000    0.000    0.000    0.000    0.000 
#
# Total GULP energy -357406.856279 kJ/mol
# GULP energy per Si atom -5584.482129 kJ/mol
# Density = 2.074081 g / cm^3
# Si number density = 20.788122 Si / 1000 Ang^3
#
#
#
# Elastic Constant Matrix: (Units=GPa)
#
#
# Indices 1 2 3 4 5 6 
#
# 1 61.1124 35.7225 10.1641 0.0000 0.0000 -2.7237
# 2 35.7225 61.1124 10.1641 0.0000 0.0000 2.7236
# 3 10.1641 10.1641 18.0450 0.0000 0.0000 0.0000
# 4 0.0000 0.0000 0.0000 22.6050 0.0000 0.0000
# 5 0.0000 0.0000 0.0000 0.0000 22.6050 0.0000
# 6 -2.7237 2.7236 0.0000 0.0000 0.0000 37.5534
#
#
#
# Elastic Compliance Matrix: (Units=1/GPa)
#
#
# Indices 1 2 3 4 5 6 
#
# 1 0.025860 -0.014148 -0.006597 0.000000 0.000000 0.002902
# 2 -0.014148 0.025860 -0.006597 0.000000 0.000000 -0.002902
# 3 -0.006597 -0.006597 0.062848 0.000000 0.000000 0.000000
# 4 0.000000 0.000000 0.000000 0.044238 0.000000 0.000000
# 5 0.000000 0.000000 0.000000 0.000000 0.044238 0.000000
# 6 0.002902 -0.002902 0.000000 0.000000 0.000000 0.027050
#
#
# Mechanical properties :
#
#
# Convention : Reuss Voigt Hill
#
# Bulk Modulus (GPa) = 16.69874 28.04124 22.36999
# Shear Modulus (GPa) = 16.40749 22.16732 19.28740
#
# Velocity S-wave (km/s) = 2.81245 3.26904 3.04930
# Velocity P-wave (km/s) = 4.31239 5.26945 4.81476
#
# Compressibility (1/GPa) = 0.05988476
#
# Stress axis : x y z
#
# Youngs Moduli (GPa) = 38.66984 38.66984 15.91130
#
# Poissons Ratio (x) = 0.54711 0.10496
# Poissons Ratio (y) = 0.54711 0.10496
# Poissons Ratio (z) = 0.25510 0.25510
#
# Static dielectric constant tensor:
#      x y z
#    x 1.774730 0.000000 0.000000 
#    y 0.000000 1.774730 0.000000 
#    z 0.000000 0.000000 1.736330 
# 
# From -- ./inp_files/5445.got.cif
#   From: 2010.05.17/outbox.cif.g08.bks.cpg/sg88_3_cif.got.tgz:5445.got - 2010.06.03 19:11:41.
