data_PCOD9546400
_publ_section_title
;
Structure prediction by ZEFSAII (Michael W. Deem and Ramdas Pophale) SiO2 
 PCOD9546400
Probable space group: I 41/A
;
_chemical_formula_sum "Si O2"
_cell_formula_units_Z 96
_cell_length_a 15.046532
_cell_length_b 15.046532
_cell_length_c 20.224373
_cell_angle_alpha 90.000000
_cell_angle_beta 90.000000
_cell_angle_gamma 90.000000
_cell_volume 4578.760131
_symmetry_space_group_name_H-M "I 41/A"
_symmetry_group_IT_number 88
_space_group.IT_coordinate_system_code '2'
_symmetry_cell_setting 'tetragonal'
loop_
_space_group_symop_operation_xyz
x,y,z
3/4-y,1/4+x,1/4+z
-x,1/2-y,z
1/4+y,1/4-x,1/4+z
-x,-y,-z
1/4+y,3/4-x,3/4-z
x,1/2+y,-z
3/4-y,3/4+x,3/4-z
1/2+x,1/2+y,1/2+z
1/4-y,3/4+x,3/4+z
1/2-x,-y,1/2+z
3/4+y,3/4-x,3/4+z
1/2-x,1/2-y,1/2-z
3/4+y,1/4-x,1/4-z
1/2+x,y,1/2-z
1/4-y,1/4+x,1/4-z
loop_
_atom_site_type_symbol
_atom_site_label
_atom_site_fract_x
_atom_site_fract_y
_atom_site_fract_z
Si Si1 0.572474 0.571290 0.895320
Si Si2 0.774869 0.973070 0.277077
Si Si3 0.133236 0.430128 0.390977
Si Si4 0.827395 0.153540 0.007664
Si Si5 0.298451 0.765056 0.888648
Si Si6 0.379662 0.751422 0.665910
O O1 0.631567 0.505652 0.938686
O O2 0.469221 0.567169 0.912829
O O3 0.582130 0.553179 0.817710
O O4 0.622722 0.665750 0.900014
O O5 0.792406 0.949069 0.200850
O O6 0.850421 0.013354 0.324452
O O7 0.693091 0.042400 0.280550
O O8 0.158775 0.329240 0.377013
O O9 0.767344 0.222313 0.048874
O O10 0.933505 0.155128 0.023322
O O11 0.223081 0.776396 0.831997
O O12 0.412823 0.816340 0.604692
#
# Coordination Sequence:
#
# PCOD9546400 Si02
#       6
#    16  16  16  16  16  16
#     4  11  24  42  63  95 129 168 222 278 330 395
#     4  11  23  41  71  90 129 168 230 269 339 396
#     4  12  23  44  64  99 126 179 218 280 331 398
#     4  10  20  41  63  97 133 173 211 269 332 397
#     4  10  22  39  62  93 134 168 214 264 320 402
#     4   9  18  35  58  94 134 175 206 252 318 399
#
# _framework density 20.966374999999999
#
# number of rings (size 3 to 8) (size 9 to 14) (size 15 to 20)
#    0.000    1.500    3.333    2.000    0.000    0.667 
#   15.000    0.000    0.000    0.000    0.000    0.000 
#    0.000    0.000    0.000    0.000    0.000    0.000 
#
# Total GULP energy -267592.661718 kJ/mol
# GULP energy per Si atom -5574.847119 kJ/mol
# Density = 2.091865 g / cm^3
# Si number density = 20.966375 Si / 1000 Ang^3
#
#
#
# Elastic Constant Matrix: (Units=GPa)
#
#
# Indices 1 2 3 4 5 6 
#
# 1 72.1347 20.6927 -8.1034 0.0000 0.0000 9.7635
# 2 20.6927 72.1347 -8.1034 0.0000 0.0000 -9.7635
# 3 -8.1034 -8.1034 56.6606 0.0000 0.0000 0.0000
# 4 0.0000 0.0000 0.0000 11.9035 0.0000 0.0000
# 5 0.0000 0.0000 0.0000 0.0000 11.9035 0.0000
# 6 9.7635 -9.7635 0.0000 0.0000 0.0000 21.9254
#
#
#
# Elastic Compliance Matrix: (Units=1/GPa)
#
#
# Indices 1 2 3 4 5 6 
#
# 1 0.017221 -0.006173 0.001580 0.000000 0.000000 -0.010417
# 2 -0.006173 0.017221 0.001580 0.000000 0.000000 0.010417
# 3 0.001580 0.001580 0.018101 0.000000 0.000000 0.000000
# 4 0.000000 0.000000 0.000000 0.084009 0.000000 0.000000
# 5 0.000000 0.000000 0.000000 0.000000 0.084009 0.000000
# 6 -0.010417 0.010417 0.000000 0.000000 0.000000 0.054887
#
#
# Mechanical properties :
#
#
# Convention : Reuss Voigt Hill
#
# Bulk Modulus (GPa) = 21.49684 23.32245 22.40965
# Shear Modulus (GPa) = 16.83618 22.24274 19.53946
#
# Velocity S-wave (km/s) = 2.83682 3.26064 3.05609
# Velocity P-wave (km/s) = 4.58315 5.03226 4.81295
#
# Compressibility (1/GPa) = 0.04651846
#
# Stress axis : x y z
#
# Youngs Moduli (GPa) = 58.06812 58.06812 55.24588
#
# Poissons Ratio (x) = 0.35843 -0.08729
# Poissons Ratio (y) = 0.35843 -0.08729
# Poissons Ratio (z) = -0.09175 -0.09175
#
# Static dielectric constant tensor:
#      x y z
#    x 1.770200 0.000000 0.000000 
#    y 0.000000 1.770200 0.000000 
#    z 0.000000 0.000000 1.817290 
# 
# From -- ./inp_files/4653.got.cif
#   From: 2010.05.17/outbox.cif.g08.bks.cpg/sg88_3_cif.got.tgz:4653.got - 2010.06.03 19:11:41.
