data_PCOD9546714
_publ_section_title
;
Structure prediction by ZEFSAII (Michael W. Deem and Ramdas Pophale) SiO2 
 PCOD9546714
Probable space group: I 41/A
;
_chemical_formula_sum "Si O2"
_cell_formula_units_Z 88
_cell_length_a 11.657236
_cell_length_b 11.657236
_cell_length_c 31.993615
_cell_angle_alpha 90.000000
_cell_angle_beta 90.000000
_cell_angle_gamma 90.000000
_cell_volume 4347.649172
_symmetry_space_group_name_H-M "I 41/A"
_symmetry_group_IT_number 88
_space_group.IT_coordinate_system_code '2'
_symmetry_cell_setting 'tetragonal'
loop_
_space_group_symop_operation_xyz
x,y,z
3/4-y,1/4+x,1/4+z
-x,1/2-y,z
1/4+y,1/4-x,1/4+z
-x,-y,-z
1/4+y,3/4-x,3/4-z
x,1/2+y,-z
3/4-y,3/4+x,3/4-z
1/2+x,1/2+y,1/2+z
1/4-y,3/4+x,3/4+z
1/2-x,-y,1/2+z
3/4+y,3/4-x,3/4+z
1/2-x,1/2-y,1/2-z
3/4+y,1/4-x,1/4-z
1/2+x,y,1/2-z
1/4-y,1/4+x,1/4-z
loop_
_atom_site_type_symbol
_atom_site_label
_atom_site_fract_x
_atom_site_fract_y
_atom_site_fract_z
Si Si1 0.000000 0.750000 0.375000
Si Si2 0.157369 0.683786 0.443206
Si Si3 0.367171 0.975241 0.647950
Si Si4 0.363542 0.054899 0.095885
Si Si5 0.634366 0.740073 0.961287
Si Si6 0.000000 0.250000 0.125000
Si Si7 0.563966 0.144350 0.155812
O O1 0.105408 0.764553 0.406850
O O2 0.106811 0.559750 0.430326
O O3 0.136572 0.730727 0.488966
O O4 0.291719 0.668962 0.437226
O O5 0.238047 0.965662 0.629811
O O6 0.431718 0.853099 0.648571
O O7 0.384791 0.044495 0.691141
O O8 0.425659 0.064965 0.615134
O O9 0.317619 0.147052 0.061982
O O10 0.475791 0.099798 0.120097
O O11 0.500000 0.750000 0.950671
O O12 0.500000 0.250000 0.176167
#
# Coordination Sequence:
#
# PCOD9546714 Si02
#       7
#     4  16  16  16  16   4  16
#     4  12  20  44  60 100 128 182 220 284 352 392
#     4  11  26  38  65  98 137 171 229 278 349 406
#     4  11  22  38  68  97 123 178 223 268 339 401
#     4  11  22  41  66  94 130 177 223 274 341 407
#     4  12  23  43  65 100 133 174 227 285 339 407
#     4  12  20  40  68  96 128 166 232 276 316 428
#     4  11  20  42  65  90 130 181 217 265 337 411
#
# _framework density 20.240822999999999
#
# number of rings (size 3 to 8) (size 9 to 14) (size 15 to 20)
#    0.000    0.727    8.182    0.000    0.000    2.182 
#    1.636    0.000    0.000    5.455    0.000    0.000 
#    0.000    0.000    0.000    0.000    0.000    0.000 
#
# Total GULP energy -245291.198690 kJ/mol
# GULP energy per Si atom -5574.799970 kJ/mol
# Density = 2.019475 g / cm^3
# Si number density = 20.240823 Si / 1000 Ang^3
#
#
#
# Elastic Constant Matrix: (Units=GPa)
#
#
# Indices 1 2 3 4 5 6 
#
# 1 82.7110 9.4319 28.3687 0.0000 0.0000 7.9259
# 2 9.4319 82.7110 28.3687 0.0000 0.0000 -7.9259
# 3 28.3687 28.3687 118.9488 0.0000 0.0000 0.0000
# 4 0.0000 0.0000 0.0000 21.4169 0.0000 0.0000
# 5 0.0000 0.0000 0.0000 0.0000 21.4169 0.0000
# 6 7.9259 -7.9259 0.0000 0.0000 0.0000 26.2045
#
#
#
# Elastic Compliance Matrix: (Units=1/GPa)
#
#
# Indices 1 2 3 4 5 6 
#
# 1 0.013661 -0.000941 -0.003034 0.000000 0.000000 -0.004416
# 2 -0.000941 0.013661 -0.003034 0.000000 0.000000 0.004416
# 3 -0.003034 -0.003034 0.009854 0.000000 0.000000 0.000000
# 4 0.000000 0.000000 0.000000 0.046692 0.000000 0.000000
# 5 0.000000 0.000000 0.000000 0.000000 0.046692 0.000000
# 6 -0.004416 0.004416 0.000000 0.000000 0.000000 0.040833
#
#
# Mechanical properties :
#
#
# Convention : Reuss Voigt Hill
#
# Bulk Modulus (GPa) = 43.17727 46.30102 44.73914
# Shear Modulus (GPa) = 25.88921 28.35441 27.12181
#
# Velocity S-wave (km/s) = 3.58027 3.74686 3.66451
# Velocity P-wave (km/s) = 6.20236 6.45316 6.32900
#
# Compressibility (1/GPa) = 0.02316034
#
# Stress axis : x y z
#
# Youngs Moduli (GPa) = 73.19935 73.19935 101.48069
#
# Poissons Ratio (x) = 0.06884 0.30788
# Poissons Ratio (y) = 0.06884 0.30788
# Poissons Ratio (z) = 0.22208 0.22208
#
# Static dielectric constant tensor:
#      x y z
#    x 1.798390 0.000000 0.000000 
#    y 0.000000 1.798390 0.000000 
#    z 0.000000 0.000000 1.695320 
# 
# From -- ./inp_files/6478.got.cif
#   From: 2010.05.17/outbox.cif.g08.bks.cpg/sg88_4_cif.got.tgz:6478.got - 2010.06.03 19:11:41.
