data_PCOD9546163
_publ_section_title
;
Structure prediction by ZEFSAII (Michael W. Deem and Ramdas Pophale) SiO2 
 PCOD9546163
Probable space group: I 4/M
;
_chemical_formula_sum "Si O2"
_cell_formula_units_Z 44
_cell_length_a 12.959445
_cell_length_b 12.959445
_cell_length_c 12.372484
_cell_angle_alpha 90.000000
_cell_angle_beta 90.000000
_cell_angle_gamma 90.000000
_cell_volume 2077.924227
_symmetry_space_group_name_H-M "I 4/M"
_symmetry_group_IT_number 87
_symmetry_cell_setting 'tetragonal'
loop_
_space_group_symop_operation_xyz
x,y,z
-y,x,z
-x,-y,z
y,-x,z
-x,-y,-z
y,-x,-z
x,y,-z
-y,x,-z
1/2+x,1/2+y,1/2+z
1/2-y,1/2+x,1/2+z
1/2-x,1/2-y,1/2+z
1/2+y,1/2-x,1/2+z
1/2-x,1/2-y,1/2-z
1/2+y,1/2-x,1/2-z
1/2+x,1/2+y,1/2-z
1/2-y,1/2+x,1/2-z
loop_
_atom_site_type_symbol
_atom_site_label
_atom_site_fract_x
_atom_site_fract_y
_atom_site_fract_z
Si Si1 0.342829 0.138054 0.376965
Si Si2 0.347485 0.420470 0.000000
Si Si3 0.641896 0.413210 0.631802
Si Si4 0.000000 0.500000 0.250000
O O1 0.386923 0.139472 0.500000
O O2 0.223419 0.112105 0.398417
O O3 0.360515 0.252608 0.331486
O O4 0.406893 0.052020 0.315624
O O5 0.457470 0.365992 0.000000
O O6 0.637559 0.533431 0.664801
O O7 0.640183 0.408849 0.500000
#
# Coordination Sequence:
#
# PCOD9546163 Si02
#       4
#    16   8  16   4
#     4   9  21  37  60  85 118 158 195 247 296 349
#     4   9  20  41  64  85 114 161 206 241 294 360
#     4   8  14  29  54  84 116 150 193 237 286 345
#     4  12  22  40  56  94 124 152 202 244 300 362
#
# _framework density 21.174980000000001
#
# number of rings (size 3 to 8) (size 9 to 14) (size 15 to 20)
#    1.091    2.000    0.000    1.636    0.000    2.909 
#    0.000    7.273    0.000    4.364    0.000    0.000 
#    0.000    0.000    0.000    0.000    0.000    0.000 
#
# Total GULP energy -122648.589193 kJ/mol
# GULP energy per Si atom -5574.935872 kJ/mol
# Density = 2.112678 g / cm^3
# Si number density = 21.174980 Si / 1000 Ang^3
#
#
#
# Elastic Constant Matrix: (Units=GPa)
#
#
# Indices 1 2 3 4 5 6 
#
# 1 158.4209 102.4587 21.0147 0.0000 0.0000 -3.9084
# 2 102.4587 158.4209 21.0147 0.0000 0.0000 3.9084
# 3 21.0147 21.0147 36.2904 0.0000 0.0000 0.0000
# 4 0.0000 0.0000 0.0000 -1.2189 0.0000 0.0000
# 5 0.0000 0.0000 0.0000 0.0000 -1.2189 0.0000
# 6 -3.9084 3.9084 0.0000 0.0000 0.0000 23.3080
#
#
#
# Elastic Compliance Matrix: (Units=1/GPa)
#
#
# Indices 1 2 3 4 5 6 
#
# 1 0.011263 -0.007035 -0.002448 0.000000 0.000000 0.003068
# 2 -0.007035 0.011263 -0.002448 0.000000 0.000000 -0.003068
# 3 -0.002448 -0.002448 0.030391 0.000000 0.000000 0.000000
# 4 0.000000 0.000000 0.000000 -0.820422 0.000000 0.000000
# 5 0.000000 0.000000 0.000000 0.000000 -0.820421 0.000000
# 6 0.003068 -0.003068 0.000000 0.000000 0.000000 0.043933
#
#
# Mechanical properties :
#
#
# Convention : Reuss Voigt Hill
#
# Bulk Modulus (GPa) = 34.41916 71.34535 52.88225
# Shear Modulus (GPa) = -3.31028 18.08366 7.38669
#
# Velocity S-wave (km/s) = -1.25168 2.92552 1.86975
# Velocity P-wave (km/s) = 3.76842 6.72145 5.44880
#
# Compressibility (1/GPa) = 0.02905359
#
# Stress axis : x y z
#
# Youngs Moduli (GPa) = 88.78880 88.78880 32.90484
#
# Poissons Ratio (x) = 0.62464 0.08055
# Poissons Ratio (y) = 0.62464 0.08055
# Poissons Ratio (z) = 0.21736 0.21736
#
# Static dielectric constant tensor:
#      x y z
#    x 1.743230 0.000000 0.000000 
#    y 0.000000 1.743230 0.000000 
#    z 0.000000 0.000000 1.813660 
# 
# From -- ./inp_files/2036.got.cif
#   From: 2010.05.17/outbox.cif.g08.bks.cpg/sg87_2_cif.got.tgz:2036.got - 2010.06.03 19:07:00.
