data_PCOD9546688
_publ_section_title
;
Structure prediction by ZEFSAII (Michael W. Deem and Ramdas Pophale) SiO2 
 PCOD9546688
Probable space group: I 41/A
;
_chemical_formula_sum "Si O2"
_cell_formula_units_Z 68
_cell_length_a 14.902147
_cell_length_b 14.902147
_cell_length_c 16.527245
_cell_angle_alpha 90.000000
_cell_angle_beta 90.000000
_cell_angle_gamma 90.000000
_cell_volume 3670.271162
_symmetry_space_group_name_H-M "I 41/A"
_symmetry_group_IT_number 88
_space_group.IT_coordinate_system_code '2'
_symmetry_cell_setting 'tetragonal'
loop_
_space_group_symop_operation_xyz
x,y,z
3/4-y,1/4+x,1/4+z
-x,1/2-y,z
1/4+y,1/4-x,1/4+z
-x,-y,-z
1/4+y,3/4-x,3/4-z
x,1/2+y,-z
3/4-y,3/4+x,3/4-z
1/2+x,1/2+y,1/2+z
1/4-y,3/4+x,3/4+z
1/2-x,-y,1/2+z
3/4+y,3/4-x,3/4+z
1/2-x,1/2-y,1/2-z
3/4+y,1/4-x,1/4-z
1/2+x,y,1/2-z
1/4-y,1/4+x,1/4-z
loop_
_atom_site_type_symbol
_atom_site_label
_atom_site_fract_x
_atom_site_fract_y
_atom_site_fract_z
Si Si1 0.752711 0.934324 0.744902
Si Si2 0.797376 0.345092 0.422681
Si Si3 0.644229 0.755608 0.266305
Si Si4 0.186082 0.860205 0.586591
Si Si5 0.500000 0.750000 0.125000
O O1 0.772926 0.871130 0.669038
O O2 0.712055 0.882132 0.821229
O O3 0.843502 0.984169 0.771809
O O4 0.682703 0.010835 0.717160
O O5 0.900282 0.370058 0.442060
O O6 0.784656 0.239914 0.436188
O O7 0.750000 0.750000 0.250000
O O8 0.618215 0.669689 0.320034
O O9 0.586452 0.749868 0.183549
#
# Coordination Sequence:
#
# PCOD9546688 Si02
#       5
#    16  16  16  16   4
#     4  10  25  41  68  90 128 168 217 266 327 386
#     4  11  23  43  63  96 125 173 212 272 320 390
#     4  12  26  38  68  94 137 170 216 268 334 397
#     4  11  23  43  63  96 125 173 212 272 320 390
#     4  12  28  44  60 112 128 170 220 276 324 396
#
# _framework density 18.527241
#
# number of rings (size 3 to 8) (size 9 to 14) (size 15 to 20)
#    0.000    0.941    4.706    0.706    9.882    0.000 
#    0.000    0.000    0.000    2.824    0.000    0.000 
#    0.000    0.000    0.000    0.000    0.000    0.000 
#
# Total GULP energy -190104.777732 kJ/mol
# GULP energy per Si atom -5591.316992 kJ/mol
# Density = 1.848507 g / cm^3
# Si number density = 18.527241 Si / 1000 Ang^3
#
#
#
# Elastic Constant Matrix: (Units=GPa)
#
#
# Indices 1 2 3 4 5 6 
#
# 1 74.7195 -36.9513 12.5986 0.0000 0.0000 2.4836
# 2 -36.9513 74.7195 12.5986 0.0000 0.0000 -2.4836
# 3 12.5986 12.5986 52.0834 0.0000 0.0000 0.0000
# 4 0.0000 0.0000 0.0000 22.1598 0.0000 0.0000
# 5 0.0000 0.0000 0.0000 0.0000 22.1598 0.0000
# 6 2.4836 -2.4836 0.0000 0.0000 0.0000 27.0097
#
#
#
# Elastic Compliance Matrix: (Units=1/GPa)
#
#
# Indices 1 2 3 4 5 6 
#
# 1 0.020282 0.011290 -0.007637 0.000000 0.000000 -0.000827
# 2 0.011290 0.020282 -0.007637 0.000000 0.000000 0.000827
# 3 -0.007637 -0.007637 0.022895 0.000000 0.000000 0.000000
# 4 0.000000 0.000000 0.000000 0.045127 0.000000 0.000000
# 5 0.000000 0.000000 0.000000 0.000000 0.045127 0.000000
# 6 -0.000827 0.000827 0.000000 0.000000 0.000000 0.037176
#
#
# Mechanical properties :
#
#
# Convention : Reuss Voigt Hill
#
# Bulk Modulus (GPa) = 18.02093 19.77935 18.90014
# Shear Modulus (GPa) = 23.00407 28.48430 25.74418
#
# Velocity S-wave (km/s) = 3.52751 3.92526 3.73169
# Velocity P-wave (km/s) = 5.13214 5.58950 5.36570
#
# Compressibility (1/GPa) = 0.05549104
#
# Stress axis : x y z
#
# Youngs Moduli (GPa) = 49.30468 49.30468 43.67825
#
# Poissons Ratio (x) = -0.55667 0.33358
# Poissons Ratio (y) = -0.55667 0.33358
# Poissons Ratio (z) = 0.37655 0.37655
#
# Static dielectric constant tensor:
#      x y z
#    x 1.615740 0.000000 0.000000 
#    y 0.000000 1.615740 0.000000 
#    z 0.000000 0.000000 1.619460 
# 
# From -- ./inp_files/3754.got.cif
#   From: 2010.05.17/outbox.cif.g08.bks.cpg/sg88_2_cif.got.tgz:3754.got - 2010.06.03 19:11:41.
