data_PCOD9546753
_publ_section_title
;
Structure prediction by ZEFSAII (Michael W. Deem and Ramdas Pophale) SiO2 
 PCOD9546753
Probable space group: I 41/A
;
_chemical_formula_sum "Si O2"
_cell_formula_units_Z 64
_cell_length_a 13.726904
_cell_length_b 13.726904
_cell_length_c 14.046770
_cell_angle_alpha 90.000000
_cell_angle_beta 90.000000
_cell_angle_gamma 90.000000
_cell_volume 2646.803281
_symmetry_space_group_name_H-M "I 41/A"
_symmetry_group_IT_number 88
_space_group.IT_coordinate_system_code '2'
_symmetry_cell_setting 'tetragonal'
loop_
_space_group_symop_operation_xyz
x,y,z
3/4-y,1/4+x,1/4+z
-x,1/2-y,z
1/4+y,1/4-x,1/4+z
-x,-y,-z
1/4+y,3/4-x,3/4-z
x,1/2+y,-z
3/4-y,3/4+x,3/4-z
1/2+x,1/2+y,1/2+z
1/4-y,3/4+x,3/4+z
1/2-x,-y,1/2+z
3/4+y,3/4-x,3/4+z
1/2-x,1/2-y,1/2-z
3/4+y,1/4-x,1/4-z
1/2+x,y,1/2-z
1/4-y,1/4+x,1/4-z
loop_
_atom_site_type_symbol
_atom_site_label
_atom_site_fract_x
_atom_site_fract_y
_atom_site_fract_z
Si Si1 0.107894 0.288416 0.343608
Si Si2 0.070695 0.498958 0.410629
Si Si3 0.410681 0.043968 0.751895
Si Si4 0.919861 0.387725 0.111005
O O1 0.106937 0.388976 0.400978
O O2 0.144340 0.203624 0.413326
O O3 0.166598 0.318102 0.248864
O O4 0.000000 0.250000 0.314163
O O5 0.170955 0.402817 0.684849
O O6 0.000000 0.500000 0.500000
O O7 0.002739 0.522005 0.319712
O O8 0.370646 0.951396 0.693302
O O9 0.871645 0.282100 0.107207
#
# Coordination Sequence:
#
# PCOD9546753 Si02
#       4
#    16  16  16  16
#     4  12  23  48  78 111 154 202 261 323 394 460
#     4  12  26  48  73 111 154 209 253 317 394 470
#     4  12  27  47  76 112 156 204 263 320 388 477
#     4  11  22  48  82 108 150 201 256 326 397 456
#
# _framework density 24.180111
#
# number of rings (size 3 to 8) (size 9 to 14) (size 15 to 20)
#    0.000    0.250    7.500    2.250    0.000    0.000 
#    9.000    0.000    0.000    0.000    0.000    0.000 
#    0.000    0.000    0.000    0.000    0.000    0.000 
#
# Total GULP energy -179014.750339 kJ/mol
# GULP energy per Si atom -5594.210948 kJ/mol
# Density = 2.412508 g / cm^3
# Si number density = 24.180111 Si / 1000 Ang^3
#
#
#
# Elastic Constant Matrix: (Units=GPa)
#
#
# Indices 1 2 3 4 5 6 
#
# 1 78.9851 22.0498 16.9293 0.0000 0.0000 -0.7934
# 2 22.0498 78.9851 16.9293 0.0000 0.0000 0.7934
# 3 16.9293 16.9293 142.0517 0.0000 0.0000 0.0000
# 4 0.0000 0.0000 0.0000 38.9055 0.0000 0.0000
# 5 0.0000 0.0000 0.0000 0.0000 38.9055 0.0000
# 6 -0.7934 0.7934 0.0000 0.0000 0.0000 -6.8464
#
#
#
# Elastic Compliance Matrix: (Units=1/GPa)
#
#
# Indices 1 2 3 4 5 6 
#
# 1 0.013908 -0.003599 -0.001229 0.000000 0.000000 -0.002029
# 2 -0.003599 0.013908 -0.001229 0.000000 0.000000 0.002029
# 3 -0.001229 -0.001229 0.007333 0.000000 0.000000 0.000000
# 4 0.000000 0.000000 0.000000 0.025703 0.000000 0.000000
# 5 0.000000 0.000000 0.000000 0.000000 0.025703 0.000000
# 6 -0.002029 0.002029 0.000000 0.000000 0.000000 -0.145593
#
#
# Mechanical properties :
#
#
# Convention : Reuss Voigt Hill
#
# Bulk Modulus (GPa) = 43.40917 45.75988 44.58453
# Shear Modulus (GPa) = -127.40275 30.46716 -48.46779
#
# Velocity S-wave (km/s) = -7.26660 3.55351 -4.48196
# Velocity P-wave (km/s) = 7.23970 5.98350 2.88192
#
# Compressibility (1/GPa) = 0.02303661
#
# Stress axis : x y z
#
# Youngs Moduli (GPa) = 71.89965 71.89965 136.37833
#
# Poissons Ratio (x) = 0.25876 0.16756
# Poissons Ratio (y) = 0.25876 0.16756
# Poissons Ratio (z) = 0.08834 0.08834
#
# Static dielectric constant tensor:
#      x y z
#    x 1.736990 0.000000 0.000000 
#    y 0.000000 1.736990 0.000000 
#    z 0.000000 0.000000 1.937580 
# 
# From -- ./inp_files/2371.got.cif
#   From: 2010.05.17/outbox.cif.g08.bks.cpg/sg88_2_cif.got.tgz:2371.got - 2010.06.03 19:11:41.
