data_PCOD9546045
_publ_section_title
;
Structure prediction by ZEFSAII (Michael W. Deem and Ramdas Pophale) SiO2 
 PCOD9546045
Probable space group: I 4/M
;
_chemical_formula_sum "Si O2"
_cell_formula_units_Z 120
_cell_length_a 14.815533
_cell_length_b 14.815533
_cell_length_c 28.639113
_cell_angle_alpha 90.000000
_cell_angle_beta 90.000000
_cell_angle_gamma 90.000000
_cell_volume 6286.285821
_symmetry_space_group_name_H-M "I 4/M"
_symmetry_group_IT_number 87
_symmetry_cell_setting 'tetragonal'
loop_
_space_group_symop_operation_xyz
x,y,z
-y,x,z
-x,-y,z
y,-x,z
-x,-y,-z
y,-x,-z
x,y,-z
-y,x,-z
1/2+x,1/2+y,1/2+z
1/2-y,1/2+x,1/2+z
1/2-x,1/2-y,1/2+z
1/2+y,1/2-x,1/2+z
1/2-x,1/2-y,1/2-z
1/2+y,1/2-x,1/2-z
1/2+x,1/2+y,1/2-z
1/2-y,1/2+x,1/2-z
loop_
_atom_site_type_symbol
_atom_site_label
_atom_site_fract_x
_atom_site_fract_y
_atom_site_fract_z
Si Si1 0.713230 0.591536 0.658664
Si Si2 0.282993 0.118397 0.372956
Si Si3 0.779100 0.085610 0.101982
Si Si4 0.356606 0.453175 0.946449
Si Si5 0.939855 0.860866 0.000000
Si Si6 0.267440 0.980367 0.238099
Si Si7 0.438216 0.911541 0.805278
Si Si8 0.257648 0.690712 0.202777
O O1 0.740605 0.514967 0.621334
O O2 0.628876 0.644114 0.636163
O O3 0.698345 0.539506 0.708125
O O4 0.788638 0.666491 0.672848
O O5 0.344438 0.197065 0.394541
O O6 0.218429 0.074634 0.410279
O O7 0.353256 0.047502 0.351284
O O8 0.224547 0.161534 0.330307
O O9 0.811045 0.081015 0.048527
O O10 0.444677 0.390642 0.940042
O O11 0.326191 0.443179 0.000000
O O12 0.045407 0.885637 0.000000
O O13 0.331368 0.930107 0.200084
O O14 0.233032 0.910054 0.276593
O O15 0.344581 0.039362 0.262993
O O16 0.500000 0.000000 0.804416
O O17 0.250000 0.750000 0.250000
#
# Coordination Sequence:
#
# PCOD9546045 Si02
#       8
#    16  16  16  16   8  16  16  16
#     4  11  21  37  57  83 118 166 213 249 308 354
#     4  11  24  38  62  96 124 153 205 260 311 363
#     4  11  23  38  60  88 126 161 203 263 310 374
#     4   9  21  46  73  91 113 149 198 260 329 391
#     4  11  22  40  62  88 119 162 217 259 312 371
#     4  12  19  35  57  82 121 166 211 239 287 354
#     4  12  21  34  57  86 120 167 206 241 283 360
#     4  11  21  38  56  84 126 165 203 256 297 350
#
# _framework density 19.089174
#
# number of rings (size 3 to 8) (size 9 to 14) (size 15 to 20)
#    0.000    1.000    6.667    1.200    2.800    0.267 
#    0.000    0.000    0.000    0.400    0.000    0.000 
#    0.000    0.000    0.000    0.000    0.000    0.000 
#
# Total GULP energy -334834.825769 kJ/mol
# GULP energy per Si atom -5580.580429 kJ/mol
# Density = 1.904573 g / cm^3
# Si number density = 19.089174 Si / 1000 Ang^3
#
#
#
# Elastic Constant Matrix: (Units=GPa)
#
#
# Indices 1 2 3 4 5 6 
#
# 1 47.1710 20.2794 55.0896 0.0000 0.0000 6.2491
# 2 20.2794 47.1710 55.0896 0.0000 0.0000 -6.2491
# 3 55.0896 55.0896 137.6391 0.0000 0.0000 0.0000
# 4 0.0000 0.0000 0.0000 39.1161 0.0000 0.0000
# 5 0.0000 0.0000 0.0000 0.0000 39.1161 0.0000
# 6 6.2491 -6.2491 0.0000 0.0000 0.0000 12.6696
#
#
#
# Elastic Compliance Matrix: (Units=1/GPa)
#
#
# Indices 1 2 3 4 5 6 
#
# 1 0.045535 -0.002711 -0.017140 0.000000 0.000000 -0.023797
# 2 -0.002711 0.045535 -0.017140 0.000000 0.000000 0.023797
# 3 -0.017140 -0.017140 0.020986 0.000000 0.000000 0.000000
# 4 0.000000 0.000000 0.000000 0.025565 0.000000 0.000000
# 5 0.000000 0.000000 0.000000 0.000000 0.025565 0.000000
# 6 -0.023797 0.023797 0.000000 0.000000 0.000000 0.102404
#
#
# Mechanical properties :
#
#
# Convention : Reuss Voigt Hill
#
# Bulk Modulus (GPa) = 26.26523 54.76648 40.51585
# Shear Modulus (GPa) = 14.19393 24.94853 19.57123
#
# Velocity S-wave (km/s) = 2.72979 3.61909 3.20543
# Velocity P-wave (km/s) = 4.87081 6.79823 5.91357
#
# Compressibility (1/GPa) = 0.03807315
#
# Stress axis : x y z
#
# Youngs Moduli (GPa) = 21.96114 21.96114 47.65106
#
# Poissons Ratio (x) = 0.05954 0.81674
# Poissons Ratio (y) = 0.05954 0.81674
# Poissons Ratio (z) = 0.37642 0.37642
#
# Static dielectric constant tensor:
#      x y z
#    x 1.707910 0.000000 0.000000 
#    y 0.000000 1.707910 0.000000 
#    z 0.000000 0.000000 1.675540 
# 
# From -- ./inp_files/6774.got.cif
#   From: 2010.05.17/outbox.cif.g08.bks.cpg/sg87_4_cif.got.tgz:6774.got - 2010.06.03 19:07:00.
