data_PCOD9546358
_publ_section_title
;
Structure prediction by ZEFSAII (Michael W. Deem and Ramdas Pophale) SiO2 
 PCOD9546358
Probable space group: I 41/A
;
_chemical_formula_sum "Si O2"
_cell_formula_units_Z 80
_cell_length_a 13.561315
_cell_length_b 13.561315
_cell_length_c 18.866139
_cell_angle_alpha 90.000000
_cell_angle_beta 90.000000
_cell_angle_gamma 90.000000
_cell_volume 3469.657748
_symmetry_space_group_name_H-M "I 41/A"
_symmetry_group_IT_number 88
_space_group.IT_coordinate_system_code '2'
_symmetry_cell_setting 'tetragonal'
loop_
_space_group_symop_operation_xyz
x,y,z
3/4-y,1/4+x,1/4+z
-x,1/2-y,z
1/4+y,1/4-x,1/4+z
-x,-y,-z
1/4+y,3/4-x,3/4-z
x,1/2+y,-z
3/4-y,3/4+x,3/4-z
1/2+x,1/2+y,1/2+z
1/4-y,3/4+x,3/4+z
1/2-x,-y,1/2+z
3/4+y,3/4-x,3/4+z
1/2-x,1/2-y,1/2-z
3/4+y,1/4-x,1/4-z
1/2+x,y,1/2-z
1/4-y,1/4+x,1/4-z
loop_
_atom_site_type_symbol
_atom_site_label
_atom_site_fract_x
_atom_site_fract_y
_atom_site_fract_z
Si Si1 0.819769 0.263204 0.949194
Si Si2 0.218324 0.496591 0.310877
Si Si3 0.435129 0.612461 0.114517
Si Si4 0.339903 0.252876 0.387415
Si Si5 0.124981 0.442162 0.930623
O O1 0.818600 0.372638 0.915512
O O2 0.725447 0.206052 0.918116
O O3 0.897583 0.174882 0.936298
O O4 0.809191 0.280071 0.033144
O O5 0.167474 0.606166 0.304607
O O6 0.267944 0.438935 0.246545
O O7 0.304834 0.524759 0.365097
O O8 0.393344 0.705466 0.158783
O O9 0.408204 0.338900 0.357996
O O10 0.252634 0.224241 0.334879
#
# Coordination Sequence:
#
# PCOD9546358 Si02
#       5
#    16  16  16  16  16
#     4  10  20  38  58  86 119 151 200 243 298 355
#     4  10  20  37  60  88 121 154 198 249 297 362
#     4   8  16  33  58  87 119 158 192 245 307 358
#     4  11  23  39  61  84 116 162 200 243 296 354
#     4  11  21  39  62  86 118 159 197 249 304 351
#
# _framework density 23.057029
#
# number of rings (size 3 to 8) (size 9 to 14) (size 15 to 20)
#    0.000    2.000    4.000    0.000    0.000    0.800 
#    3.600    4.000    0.000    0.000    0.000    0.000 
#    0.000    0.000    0.000    0.000    0.000    0.000 
#
# Total GULP energy -222887.023385 kJ/mol
# GULP energy per Si atom -5572.175585 kJ/mol
# Density = 2.300455 g / cm^3
# Si number density = 23.057029 Si / 1000 Ang^3
#
#
#
# Elastic Constant Matrix: (Units=GPa)
#
#
# Indices 1 2 3 4 5 6 
#
# 1 32.5959 11.0980 -15.5768 0.0000 0.0000 9.0568
# 2 11.0980 32.5959 -15.5768 0.0000 0.0000 -9.0568
# 3 -15.5768 -15.5768 43.9603 0.0000 0.0000 0.0000
# 4 0.0000 0.0000 0.0000 15.8617 0.0000 0.0000
# 5 0.0000 0.0000 0.0000 0.0000 15.8617 0.0000
# 6 9.0568 -9.0568 0.0000 0.0000 0.0000 41.5955
#
#
#
# Elastic Compliance Matrix: (Units=1/GPa)
#
#
# Indices 1 2 3 4 5 6 
#
# 1 0.043795 -0.013172 0.010851 0.000000 0.000000 -0.012404
# 2 -0.013172 0.043795 0.010851 0.000000 0.000000 0.012404
# 3 0.010851 0.010851 0.030438 0.000000 0.000000 0.000000
# 4 0.000000 0.000000 0.000000 0.063045 0.000000 0.000000
# 5 0.000000 0.000000 0.000000 0.000000 0.063045 0.000000
# 6 -0.012404 0.012404 0.000000 0.000000 0.000000 0.029443
#
#
# Mechanical properties :
#
#
# Convention : Reuss Voigt Hill
#
# Bulk Modulus (GPa) = 7.40256 7.67118 7.53687
# Shear Modulus (GPa) = 16.58209 23.27763 19.92986
#
# Velocity S-wave (km/s) = 2.68466 3.18082 2.94321
# Velocity P-wave (km/s) = 3.58153 4.10175 3.85044
#
# Compressibility (1/GPa) = 0.13508835
#
# Stress axis : x y z
#
# Youngs Moduli (GPa) = 22.83348 22.83348 32.85400
#
# Poissons Ratio (x) = 0.30076 -0.35650
# Poissons Ratio (y) = 0.30076 -0.35650
# Poissons Ratio (z) = -0.24777 -0.24777
#
# Static dielectric constant tensor:
#      x y z
#    x 1.959960 0.000000 0.000000 
#    y 0.000000 1.959960 0.000000 
#    z 0.000000 0.000000 1.834560 
# 
# From -- ./inp_files/4511.got.cif
#   From: 2010.05.17/outbox.cif.g08.bks.cpg/sg88_3_cif.got.tgz:4511.got - 2010.06.03 19:11:41.
