data_PCOD9546546
_publ_section_title
;
Structure prediction by ZEFSAII (Michael W. Deem and Ramdas Pophale) SiO2 
 PCOD9546546
Probable space group: I 41/A
;
_chemical_formula_sum "Si O2"
_cell_formula_units_Z 84
_cell_length_a 13.662212
_cell_length_b 13.662212
_cell_length_c 18.884988
_cell_angle_alpha 90.000000
_cell_angle_beta 90.000000
_cell_angle_gamma 90.000000
_cell_volume 3524.997014
_symmetry_space_group_name_H-M "I 41/A"
_symmetry_group_IT_number 88
_space_group.IT_coordinate_system_code '2'
_symmetry_cell_setting 'tetragonal'
loop_
_space_group_symop_operation_xyz
x,y,z
3/4-y,1/4+x,1/4+z
-x,1/2-y,z
1/4+y,1/4-x,1/4+z
-x,-y,-z
1/4+y,3/4-x,3/4-z
x,1/2+y,-z
3/4-y,3/4+x,3/4-z
1/2+x,1/2+y,1/2+z
1/4-y,3/4+x,3/4+z
1/2-x,-y,1/2+z
3/4+y,3/4-x,3/4+z
1/2-x,1/2-y,1/2-z
3/4+y,1/4-x,1/4-z
1/2+x,y,1/2-z
1/4-y,1/4+x,1/4-z
loop_
_atom_site_type_symbol
_atom_site_label
_atom_site_fract_x
_atom_site_fract_y
_atom_site_fract_z
Si Si1 0.783518 0.357820 0.806439
Si Si2 0.500000 0.250000 0.375000
Si Si3 0.066523 0.663451 0.505665
Si Si4 0.147779 0.187116 0.222093
Si Si5 0.066131 0.944952 0.115398
Si Si6 0.745686 0.516439 0.432355
O O1 0.840185 0.255703 0.799648
O O2 0.664155 0.353958 0.801906
O O3 0.807064 0.425497 0.737888
O O4 0.804800 0.405920 0.881355
O O5 0.575814 0.300956 0.426920
O O6 0.148571 0.710353 0.557928
O O7 0.000000 0.750000 0.476634
O O8 0.119162 0.207494 0.302633
O O9 0.212741 0.264452 0.175844
O O10 0.210841 0.089190 0.224253
O O11 0.181041 0.962732 0.131111
#
# Coordination Sequence:
#
# PCOD9546546 Si02
#       6
#    16   4  16  16  16  16
#     4  10  23  42  66  93 127 171 220 265 331 388
#     4  12  24  36  60 100 128 160 216 258 308 408
#     4  10  22  45  63  94 125 162 224 273 319 386
#     4  11  22  39  61  95 130 167 207 254 327 384
#     4  10  22  39  63  86 129 167 203 263 316 382
#     4  11  20  42  63  91 128 169 210 266 317 388
#
# _framework density 23.829806999999999
#
# number of rings (size 3 to 8) (size 9 to 14) (size 15 to 20)
#    0.000    1.524    3.810    1.143    1.333    0.000 
#   13.714    0.000    0.000    0.000    0.000    0.000 
#    0.000    0.000    0.000    0.000    0.000    0.000 
#
# Total GULP energy -233921.858837 kJ/mol
# GULP energy per Si atom -5569.568068 kJ/mol
# Density = 2.377557 g / cm^3
# Si number density = 23.829807 Si / 1000 Ang^3
#
#
#
# Elastic Constant Matrix: (Units=GPa)
#
#
# Indices 1 2 3 4 5 6 
#
# 1 47.7306 -5.9189 10.0568 0.0000 0.0000 4.6961
# 2 -5.9189 47.7306 10.0568 0.0000 0.0000 -4.6961
# 3 10.0568 10.0568 69.1188 0.0000 0.0000 0.0000
# 4 0.0000 0.0000 0.0000 87.9743 0.0000 0.0000
# 5 0.0000 0.0000 0.0000 0.0000 87.9744 0.0000
# 6 4.6961 -4.6961 0.0000 0.0000 0.0000 31.1686
#
#
#
# Elastic Compliance Matrix: (Units=1/GPa)
#
#
# Indices 1 2 3 4 5 6 
#
# 1 0.022431 0.003286 -0.003742 0.000000 0.000000 -0.002884
# 2 0.003286 0.022431 -0.003742 0.000000 0.000000 0.002884
# 3 -0.003742 -0.003742 0.015557 0.000000 0.000000 0.000000
# 4 0.000000 0.000000 0.000000 0.011367 0.000000 0.000000
# 5 0.000000 0.000000 0.000000 0.000000 0.011367 0.000000
# 6 -0.002884 0.002884 0.000000 0.000000 0.000000 0.032953
#
#
# Mechanical properties :
#
#
# Convention : Reuss Voigt Hill
#
# Bulk Modulus (GPa) = 19.22229 21.44107 20.33168
# Shear Modulus (GPa) = 35.25086 51.44915 43.35001
#
# Velocity S-wave (km/s) = 3.85031 4.65157 4.26978
# Velocity P-wave (km/s) = 5.27736 6.15359 5.73224
#
# Compressibility (1/GPa) = 0.05202295
#
# Stress axis : x y z
#
# Youngs Moduli (GPa) = 44.58198 44.58198 64.28095
#
# Poissons Ratio (x) = -0.14650 0.24053
# Poissons Ratio (y) = -0.14650 0.24053
# Poissons Ratio (z) = 0.16682 0.16682
#
# Static dielectric constant tensor:
#      x y z
#    x 1.993680 0.000000 0.000000 
#    y 0.000000 1.993680 0.000000 
#    z 0.000000 0.000000 1.901720 
# 
# From -- ./inp_files/4616.got.cif
#   From: 2010.05.17/outbox.cif.g08.bks.cpg/sg88_3_cif.got.tgz:4616.got - 2010.06.03 19:11:41.
