data_PCOD9546288
_publ_section_title
;
Structure prediction by ZEFSAII (Michael W. Deem and Ramdas Pophale) SiO2 
 PCOD9546288
Probable space group: I 41/A
;
_chemical_formula_sum "Si O2"
_cell_formula_units_Z 68
_cell_length_a 20.340309
_cell_length_b 20.340309
_cell_length_c 7.061548
_cell_angle_alpha 90.000000
_cell_angle_beta 90.000000
_cell_angle_gamma 90.000000
_cell_volume 2921.561333
_symmetry_space_group_name_H-M "I 41/A"
_symmetry_group_IT_number 88
_space_group.IT_coordinate_system_code '2'
_symmetry_cell_setting 'tetragonal'
loop_
_space_group_symop_operation_xyz
x,y,z
3/4-y,1/4+x,1/4+z
-x,1/2-y,z
1/4+y,1/4-x,1/4+z
-x,-y,-z
1/4+y,3/4-x,3/4-z
x,1/2+y,-z
3/4-y,3/4+x,3/4-z
1/2+x,1/2+y,1/2+z
1/4-y,3/4+x,3/4+z
1/2-x,-y,1/2+z
3/4+y,3/4-x,3/4+z
1/2-x,1/2-y,1/2-z
3/4+y,1/4-x,1/4-z
1/2+x,y,1/2-z
1/4-y,1/4+x,1/4-z
loop_
_atom_site_type_symbol
_atom_site_label
_atom_site_fract_x
_atom_site_fract_y
_atom_site_fract_z
Si Si1 0.929615 0.522648 0.566176
Si Si2 0.777536 0.578836 0.742652
Si Si3 0.591691 0.865466 0.662676
Si Si4 0.360230 0.598720 0.261380
Si Si5 0.500000 0.250000 0.375000
O O1 0.935969 0.564456 0.761770
O O2 0.888882 0.454910 0.540484
O O3 0.900653 0.577772 0.422736
O O4 0.000000 0.500000 0.500000
O O5 0.738301 0.563485 0.553665
O O6 0.833202 0.634100 0.757968
O O7 0.721081 0.590999 0.894988
O O8 0.600001 0.866542 0.433878
O O9 0.546731 0.804633 0.724453
#
# Coordination Sequence:
#
# PCOD9546288 Si02
#       5
#    16  16  16  16   4
#     4  12  27  44  72 113 146 190 246 298 365 444
#     4  10  19  36  67 105 136 167 224 303 371 403
#     4  11  26  43  76  95 150 197 240 299 359 434
#     4  11  24  44  73 113 145 176 244 313 367 431
#     4  12  28  56  62 100 152 214 244 284 358 464
#
# _framework density 23.275226
#
# number of rings (size 3 to 8) (size 9 to 14) (size 15 to 20)
#    0.000    0.941    4.706    2.824    6.588    2.824 
#    0.000    1.176    0.000    0.000    0.000    0.000 
#    0.000    0.000    0.000    0.000    0.000    0.000 
#
# Total GULP energy -189751.733024 kJ/mol
# GULP energy per Si atom -5580.933324 kJ/mol
# Density = 2.322225 g / cm^3
# Si number density = 23.275226 Si / 1000 Ang^3
#
#
#
# Elastic Constant Matrix: (Units=GPa)
#
#
# Indices 1 2 3 4 5 6 
#
# 1 135.3988 74.4264 18.9285 0.0000 0.0000 0.7097
# 2 74.4264 135.3988 18.9285 0.0000 0.0000 -0.7097
# 3 18.9285 18.9285 83.7440 0.0000 0.0000 0.0000
# 4 0.0000 0.0000 0.0000 20.1835 0.0000 0.0000
# 5 0.0000 0.0000 0.0000 0.0000 20.1835 0.0000
# 6 0.7097 -0.7097 0.0000 0.0000 0.0000 68.0890
#
#
#
# Elastic Compliance Matrix: (Units=1/GPa)
#
#
# Indices 1 2 3 4 5 6 
#
# 1 0.010687 -0.005718 -0.001123 0.000000 0.000000 -0.000171
# 2 -0.005718 0.010687 -0.001123 0.000000 0.000000 0.000171
# 3 -0.001123 -0.001123 0.012449 0.000000 0.000000 0.000000
# 4 0.000000 0.000000 0.000000 0.049545 0.000000 0.000000
# 5 0.000000 0.000000 0.000000 0.000000 0.049545 0.000000
# 6 -0.000171 0.000171 0.000000 0.000000 0.000000 0.014690
#
#
# Mechanical properties :
#
#
# Convention : Reuss Voigt Hill
#
# Bulk Modulus (GPa) = 55.88552 64.34538 60.11545
# Shear Modulus (GPa) = 29.49923 37.84178 33.67050
#
# Velocity S-wave (km/s) = 3.56393 4.03654 3.80758
# Velocity P-wave (km/s) = 6.40299 7.03067 6.72416
#
# Compressibility (1/GPa) = 0.01789372
#
# Stress axis : x y z
#
# Youngs Moduli (GPa) = 93.57461 93.57461 80.32894
#
# Poissons Ratio (x) = 0.53508 0.09021
# Poissons Ratio (y) = 0.53508 0.09021
# Poissons Ratio (z) = 0.10509 0.10509
#
# Static dielectric constant tensor:
#      x y z
#    x 1.914980 0.000000 0.000000 
#    y 0.000000 1.914980 0.000000 
#    z 0.000000 0.000000 2.015750 
# 
# From -- ./inp_files/1493.got.cif
#   From: 2010.05.17/outbox.cif.g08.bks.cpg/sg88_1_cif.got.tgz:1493.got - 2010.06.03 19:11:41.
