data_PCOD9546309
_publ_section_title
;
Structure prediction by ZEFSAII (Michael W. Deem and Ramdas Pophale) SiO2 
 PCOD9546309
Probable space group: I 41/A
;
_chemical_formula_sum "Si O2"
_cell_formula_units_Z 92
_cell_length_a 13.782241
_cell_length_b 13.782241
_cell_length_c 20.650493
_cell_angle_alpha 90.000000
_cell_angle_beta 90.000000
_cell_angle_gamma 90.000000
_cell_volume 3922.564594
_symmetry_space_group_name_H-M "I 41/A"
_symmetry_group_IT_number 88
_space_group.IT_coordinate_system_code '2'
_symmetry_cell_setting 'tetragonal'
loop_
_space_group_symop_operation_xyz
x,y,z
3/4-y,1/4+x,1/4+z
-x,1/2-y,z
1/4+y,1/4-x,1/4+z
-x,-y,-z
1/4+y,3/4-x,3/4-z
x,1/2+y,-z
3/4-y,3/4+x,3/4-z
1/2+x,1/2+y,1/2+z
1/4-y,3/4+x,3/4+z
1/2-x,-y,1/2+z
3/4+y,3/4-x,3/4+z
1/2-x,1/2-y,1/2-z
3/4+y,1/4-x,1/4-z
1/2+x,y,1/2-z
1/4-y,1/4+x,1/4-z
loop_
_atom_site_type_symbol
_atom_site_label
_atom_site_fract_x
_atom_site_fract_y
_atom_site_fract_z
Si Si1 0.864503 0.256089 0.008157
Si Si2 0.307954 0.763614 0.907985
Si Si3 0.596712 0.453034 0.528226
Si Si4 0.000000 0.250000 0.125000
Si Si5 0.500000 0.250000 0.723997
Si Si6 0.607769 0.342755 0.909047
Si Si7 0.183167 0.933699 0.671197
O O1 0.756076 0.230443 0.028480
O O2 0.916214 0.282907 0.076016
O O3 0.913845 0.161175 0.980370
O O4 0.859176 0.338229 0.955929
O O5 0.272869 0.840582 0.853812
O O6 0.416586 0.789883 0.927760
O O7 0.296078 0.651546 0.881505
O O8 0.500000 0.500000 0.500000
O O9 0.680350 0.489728 0.480419
O O10 0.576287 0.192639 0.770445
O O11 0.629731 0.232566 0.884530
O O12 0.705166 0.406838 0.903503
#
# Coordination Sequence:
#
# PCOD9546309 Si02
#       7
#    16  16  16   4   8  16  16
#     4  12  23  41  65 100 135 185 227 283 355 416
#     4  11  22  40  68  97 136 183 225 288 348 418
#     4  10  23  41  63  96 138 181 226 280 344 419
#     4  12  20  34  64  92 138 176 216 276 350 420
#     4  10  19  43  66  96 127 179 230 274 354 412
#     4   9  21  45  71  93 135 178 225 294 355 407
#     4  11  22  44  65 100 138 178 233 289 347 420
#
# _framework density 23.454042000000001
#
# number of rings (size 3 to 8) (size 9 to 14) (size 15 to 20)
#    0.000    1.565    1.739    6.261    0.000    0.000 
#    9.391    3.478    0.000    0.000    0.000    0.000 
#    0.000    0.000    0.000    0.000    0.000    0.000 
#
# Total GULP energy -256929.072615 kJ/mol
# GULP energy per Si atom -5585.414622 kJ/mol
# Density = 2.340066 g / cm^3
# Si number density = 23.454042 Si / 1000 Ang^3
#
#
#
# Elastic Constant Matrix: (Units=GPa)
#
#
# Indices 1 2 3 4 5 6 
#
# 1 94.7395 -3.0373 11.2375 0.0000 0.0000 15.4614
# 2 -3.0373 94.7395 11.2375 0.0000 0.0000 -15.4614
# 3 11.2375 11.2375 52.5301 0.0000 0.0000 0.0000
# 4 0.0000 0.0000 0.0000 33.6515 0.0000 0.0000
# 5 0.0000 0.0000 0.0000 0.0000 33.6515 0.0000
# 6 15.4614 -15.4614 0.0000 0.0000 0.0000 38.2039
#
#
#
# Elastic Compliance Matrix: (Units=1/GPa)
#
#
# Indices 1 2 3 4 5 6 
#
# 1 0.011618 -0.000110 -0.002462 0.000000 0.000000 -0.004747
# 2 -0.000110 0.011618 -0.002462 0.000000 0.000000 0.004747
# 3 -0.002462 -0.002462 0.020090 0.000000 0.000000 0.000000
# 4 0.000000 0.000000 0.000000 0.029716 0.000000 0.000000
# 5 0.000000 0.000000 0.000000 0.000000 0.029716 0.000000
# 6 -0.004747 0.004747 0.000000 0.000000 0.000000 0.030017
#
#
# Mechanical properties :
#
#
# Convention : Reuss Voigt Hill
#
# Bulk Modulus (GPa) = 30.06713 31.20940 30.63827
# Shear Modulus (GPa) = 32.48210 35.93950 34.21080
#
# Velocity S-wave (km/s) = 3.72550 3.91875 3.82335
# Velocity P-wave (km/s) = 5.59939 5.81472 5.70807
#
# Compressibility (1/GPa) = 0.03325891
#
# Stress axis : x y z
#
# Youngs Moduli (GPa) = 86.07049 86.07049 49.77589
#
# Poissons Ratio (x) = 0.00948 0.12254
# Poissons Ratio (y) = 0.00948 0.12254
# Poissons Ratio (z) = 0.21190 0.21190
#
# Static dielectric constant tensor:
#      x y z
#    x 1.823710 0.000000 0.000000 
#    y 0.000000 1.823710 0.000000 
#    z 0.000000 0.000000 1.906180 
# 
# From -- ./inp_files/4736.got.cif
#   From: 2010.05.17/outbox.cif.g08.bks.cpg/sg88_3_cif.got.tgz:4736.got - 2010.06.03 19:11:41.
