data_PCOD9546742
_publ_section_title
;
Structure prediction by ZEFSAII (Michael W. Deem and Ramdas Pophale) SiO2 
 PCOD9546742
Probable space group: I 41/A
;
_chemical_formula_sum "Si O2"
_cell_formula_units_Z 112
_cell_length_a 23.242292
_cell_length_b 23.242292
_cell_length_c 11.550207
_cell_angle_alpha 90.000000
_cell_angle_beta 90.000000
_cell_angle_gamma 90.000000
_cell_volume 6239.469609
_symmetry_space_group_name_H-M "I 41/A"
_symmetry_group_IT_number 88
_space_group.IT_coordinate_system_code '2'
_symmetry_cell_setting 'tetragonal'
loop_
_space_group_symop_operation_xyz
x,y,z
3/4-y,1/4+x,1/4+z
-x,1/2-y,z
1/4+y,1/4-x,1/4+z
-x,-y,-z
1/4+y,3/4-x,3/4-z
x,1/2+y,-z
3/4-y,3/4+x,3/4-z
1/2+x,1/2+y,1/2+z
1/4-y,3/4+x,3/4+z
1/2-x,-y,1/2+z
3/4+y,3/4-x,3/4+z
1/2-x,1/2-y,1/2-z
3/4+y,1/4-x,1/4-z
1/2+x,y,1/2-z
1/4-y,1/4+x,1/4-z
loop_
_atom_site_type_symbol
_atom_site_label
_atom_site_fract_x
_atom_site_fract_y
_atom_site_fract_z
Si Si1 0.376614 0.871844 0.630116
Si Si2 0.805966 0.058160 0.308926
Si Si3 0.305089 0.566510 0.426919
Si Si4 0.798188 0.127386 0.544129
Si Si5 0.876954 0.058703 0.693837
Si Si6 0.834724 0.245271 0.191345
Si Si7 0.214593 0.247942 0.445394
O O1 0.339996 0.900845 0.527839
O O2 0.359699 0.911967 0.737743
O O3 0.443014 0.875161 0.596598
O O4 0.357272 0.807764 0.657800
O O5 0.744972 0.045855 0.243537
O O6 0.796506 0.100272 0.415677
O O7 0.839795 0.002252 0.352955
O O8 0.345952 0.557166 0.318425
O O9 0.247807 0.598788 0.386474
O O10 0.855743 0.112008 0.615542
O O11 0.785994 0.194411 0.523004
O O12 0.943945 0.053299 0.725131
O O13 0.824507 0.243602 0.330010
O O14 0.775940 0.236645 0.117419
#
# Coordination Sequence:
#
# PCOD9546742 Si02
#       7
#    16  16  16  16  16  16  16
#     4  12  22  37  68  96 124 158 212 260 313 374
#     4  12  20  37  62  95 128 159 200 258 319 377
#     4  12  20  37  62  95 128 159 200 258 319 377
#     4  12  24  38  60  94 129 167 205 255 315 382
#     4  12  24  38  60  94 129 167 205 255 315 382
#     4  11  22  41  65  93 127 161 213 261 312 370
#     4  11  22  40  64  88 126 175 204 253 316 386
#
# _framework density 17.950244000000001
#
# number of rings (size 3 to 8) (size 9 to 14) (size 15 to 20)
#    0.000    0.286    8.571    2.571    0.000    0.286 
#    0.000    4.286    0.000    0.429    0.000    0.000 
#    0.000    0.000    0.000    0.000    0.000    0.000 
#
# Total GULP energy -312687.169139 kJ/mol
# GULP energy per Si atom -5583.699449 kJ/mol
# Density = 1.790939 g / cm^3
# Si number density = 17.950244 Si / 1000 Ang^3
#
#
#
# Elastic Constant Matrix: (Units=GPa)
#
#
# Indices 1 2 3 4 5 6 
#
# 1 69.7982 -8.3401 14.8281 0.0000 0.0000 0.3605
# 2 -8.3401 69.7982 14.8281 0.0000 0.0000 -0.3605
# 3 14.8281 14.8281 51.6526 0.0000 0.0000 0.0000
# 4 0.0000 0.0000 0.0000 27.4482 0.0000 0.0000
# 5 0.0000 0.0000 0.0000 0.0000 27.4482 0.0000
# 6 0.3605 -0.3605 0.0000 0.0000 0.0000 18.0129
#
#
#
# Elastic Compliance Matrix: (Units=1/GPa)
#
#
# Indices 1 2 3 4 5 6 
#
# 1 0.015844 0.003044 -0.005422 0.000000 0.000000 -0.000256
# 2 0.003044 0.015844 -0.005422 0.000000 0.000000 0.000256
# 3 -0.005422 -0.005422 0.022473 0.000000 0.000000 0.000000
# 4 0.000000 0.000000 0.000000 0.036432 0.000000 0.000000
# 5 0.000000 0.000000 0.000000 0.000000 0.036432 0.000000
# 6 -0.000256 0.000256 0.000000 0.000000 0.000000 0.055526
#
#
# Mechanical properties :
#
#
# Convention : Reuss Voigt Hill
#
# Bulk Modulus (GPa) = 25.93363 25.98679 25.96021
# Shear Modulus (GPa) = 23.69601 25.91072 24.80337
#
# Velocity S-wave (km/s) = 3.63725 3.80343 3.72127
# Velocity P-wave (km/s) = 5.66730 5.81349 5.74086
#
# Compressibility (1/GPa) = 0.03855996
#
# Stress axis : x y z
#
# Youngs Moduli (GPa) = 63.11573 63.11573 44.49745
#
# Poissons Ratio (x) = -0.19211 0.24127
# Poissons Ratio (y) = -0.19211 0.24127
# Poissons Ratio (z) = 0.34222 0.34222
#
# Static dielectric constant tensor:
#      x y z
#    x 1.625700 0.000000 0.000000 
#    y 0.000000 1.625700 0.000000 
#    z 0.000000 0.000000 1.645590 
# 
# From -- ./inp_files/2720.got.cif
#   From: 2010.05.17/outbox.cif.g08.bks.cpg/sg88_2_cif.got.tgz:2720.got - 2010.06.03 19:11:41.
