data_PCOD9546649
_publ_section_title
;
Structure prediction by ZEFSAII (Michael W. Deem and Ramdas Pophale) SiO2 
 PCOD9546649
Probable space group: I 41/A
;
_chemical_formula_sum "Si O2"
_cell_formula_units_Z 40
_cell_length_a 8.646782
_cell_length_b 8.646782
_cell_length_c 21.107268
_cell_angle_alpha 90.000000
_cell_angle_beta 90.000000
_cell_angle_gamma 90.000000
_cell_volume 1578.123707
_symmetry_space_group_name_H-M "I 41/A"
_symmetry_group_IT_number 88
_space_group.IT_coordinate_system_code '2'
_symmetry_cell_setting 'tetragonal'
loop_
_space_group_symop_operation_xyz
x,y,z
3/4-y,1/4+x,1/4+z
-x,1/2-y,z
1/4+y,1/4-x,1/4+z
-x,-y,-z
1/4+y,3/4-x,3/4-z
x,1/2+y,-z
3/4-y,3/4+x,3/4-z
1/2+x,1/2+y,1/2+z
1/4-y,3/4+x,3/4+z
1/2-x,-y,1/2+z
3/4+y,3/4-x,3/4+z
1/2-x,1/2-y,1/2-z
3/4+y,1/4-x,1/4-z
1/2+x,y,1/2-z
1/4-y,1/4+x,1/4-z
loop_
_atom_site_type_symbol
_atom_site_label
_atom_site_fract_x
_atom_site_fract_y
_atom_site_fract_z
Si Si1 0.396548 0.433561 0.836510
Si Si2 0.477480 0.509596 0.626495
Si Si3 0.500000 0.250000 0.723838
O O1 0.576980 0.429056 0.858258
O O2 0.337660 0.607724 0.834358
O O3 0.385568 0.339507 0.771512
O O4 0.360402 0.638890 0.655635
O O5 0.546273 0.391701 0.678094
#
# Coordination Sequence:
#
# PCOD9546649 Si02
#       3
#    16  16   8
#     4   9  21  41  69  97 123 170 221 256 314 397
#     4  11  24  40  62  98 135 165 213 272 321 375
#     4  10  23  46  70  90 132 176 213 264 322 384
#
# _framework density 25.346553
#
# number of rings (size 3 to 8) (size 9 to 14) (size 15 to 20)
#    0.000    2.400    0.000    2.400    0.000   16.000 
#    0.000   12.000    0.000    0.000    0.000    0.000 
#    0.000    0.000    0.000    0.000    0.000    0.000 
#
# Total GULP energy -111488.662323 kJ/mol
# GULP energy per Si atom -5574.433116 kJ/mol
# Density = 2.528886 g / cm^3
# Si number density = 25.346553 Si / 1000 Ang^3
#
#
#
# Elastic Constant Matrix: (Units=GPa)
#
#
# Indices 1 2 3 4 5 6 
#
# 1 124.0785 37.5345 46.1453 0.0000 0.0000 14.5663
# 2 37.5345 124.0785 46.1453 0.0000 0.0000 -14.5663
# 3 46.1453 46.1453 83.0473 0.0000 0.0000 0.0000
# 4 0.0000 0.0000 0.0000 11.9782 0.0000 0.0000
# 5 0.0000 0.0000 0.0000 0.0000 11.9782 0.0000
# 6 14.5663 -14.5663 0.0000 0.0000 0.0000 76.8565
#
#
#
# Elastic Compliance Matrix: (Units=1/GPa)
#
#
# Indices 1 2 3 4 5 6 
#
# 1 0.010703 -0.001639 -0.005036 0.000000 0.000000 -0.002339
# 2 -0.001639 0.010703 -0.005036 0.000000 0.000000 0.002339
# 3 -0.005036 -0.005036 0.017638 0.000000 0.000000 0.000000
# 4 0.000000 0.000000 0.000000 0.083485 0.000000 0.000000
# 5 0.000000 0.000000 0.000000 0.000000 0.083485 0.000000
# 6 -0.002339 0.002339 0.000000 0.000000 0.000000 0.013898
#
#
# Mechanical properties :
#
#
# Convention : Reuss Voigt Hill
#
# Bulk Modulus (GPa) = 64.01856 65.65050 64.83453
# Shear Modulus (GPa) = 20.11737 33.58787 26.85262
#
# Velocity S-wave (km/s) = 2.82031 3.64420 3.25840
# Velocity P-wave (km/s) = 5.99314 6.60790 6.30801
#
# Compressibility (1/GPa) = 0.01562047
#
# Stress axis : x y z
#
# Youngs Moduli (GPa) = 93.43253 93.43253 56.69566
#
# Poissons Ratio (x) = 0.15317 0.28553
# Poissons Ratio (y) = 0.15317 0.28553
# Poissons Ratio (z) = 0.47054 0.47054
#
# Static dielectric constant tensor:
#      x y z
#    x 2.090240 0.000000 0.000000 
#    y 0.000000 2.090240 0.000000 
#    z 0.000000 0.000000 1.972400 
# 
# From -- ./inp_files/4935.got.cif
#   From: 2010.05.17/outbox.cif.g08.bks.cpg/sg88_3_cif.got.tgz:4935.got - 2010.06.03 19:11:41.
