data_PCOD9546427
_publ_section_title
;
Structure prediction by ZEFSAII (Michael W. Deem and Ramdas Pophale) SiO2 
 PCOD9546427
Probable space group: I 41/A
;
_chemical_formula_sum "Si O2"
_cell_formula_units_Z 96
_cell_length_a 13.006523
_cell_length_b 13.006523
_cell_length_c 27.467535
_cell_angle_alpha 90.000000
_cell_angle_beta 90.000000
_cell_angle_gamma 90.000000
_cell_volume 4646.673023
_symmetry_space_group_name_H-M "I 41/A"
_symmetry_group_IT_number 88
_space_group.IT_coordinate_system_code '2'
_symmetry_cell_setting 'tetragonal'
loop_
_space_group_symop_operation_xyz
x,y,z
3/4-y,1/4+x,1/4+z
-x,1/2-y,z
1/4+y,1/4-x,1/4+z
-x,-y,-z
1/4+y,3/4-x,3/4-z
x,1/2+y,-z
3/4-y,3/4+x,3/4-z
1/2+x,1/2+y,1/2+z
1/4-y,3/4+x,3/4+z
1/2-x,-y,1/2+z
3/4+y,3/4-x,3/4+z
1/2-x,1/2-y,1/2-z
3/4+y,1/4-x,1/4-z
1/2+x,y,1/2-z
1/4-y,1/4+x,1/4-z
loop_
_atom_site_type_symbol
_atom_site_label
_atom_site_fract_x
_atom_site_fract_y
_atom_site_fract_z
Si Si1 0.036402 0.555009 0.266983
Si Si2 0.665755 0.915065 0.168445
Si Si3 0.632652 0.477783 0.696964
Si Si4 0.071540 0.447713 0.563026
Si Si5 0.784341 0.573699 0.766529
Si Si6 0.428411 0.400074 0.391445
O O1 0.942446 0.556884 0.304973
O O2 0.980152 0.545642 0.215993
O O3 0.105009 0.654572 0.276422
O O4 0.119066 0.462572 0.266157
O O5 0.699404 0.797918 0.176737
O O6 0.637865 0.924802 0.111733
O O7 0.751143 0.986920 0.193594
O O8 0.699413 0.375488 0.705843
O O9 0.687842 0.567689 0.729202
O O10 0.622570 0.512359 0.641803
O O11 0.817900 0.666997 0.801818
O O12 0.543831 0.380250 0.371901
#
# Coordination Sequence:
#
# PCOD9546427 Si02
#       6
#    16  16  16  16  16  16
#     4  10  21  36  57  84 120 153 194 251 286 354
#     4  11  21  34  58  86 117 163 201 235 295 366
#     4  10  22  39  60  87 122 153 196 255 304 354
#     4  11  21  34  58  86 117 163 201 235 295 366
#     4  10  22  39  60  87 122 153 196 255 304 354
#     4  11  22  40  68  90 111 156 206 250 311 376
#
# _framework density 20.659942000000001
#
# number of rings (size 3 to 8) (size 9 to 14) (size 15 to 20)
#    0.000    1.500    5.000    0.500    0.000    8.000 
#    0.000    0.000    0.000    0.000    0.000    0.000 
#    0.000    0.000    0.000    0.000    0.000    0.000 
#
# Total GULP energy -267537.608400 kJ/mol
# GULP energy per Si atom -5573.700175 kJ/mol
# Density = 2.061292 g / cm^3
# Si number density = 20.659942 Si / 1000 Ang^3
#
#
#
# Elastic Constant Matrix: (Units=GPa)
#
#
# Indices 1 2 3 4 5 6 
#
# 1 51.5924 9.6484 -3.6299 0.0000 0.0000 2.3262
# 2 9.6484 51.5924 -3.6299 0.0000 0.0000 -2.3262
# 3 -3.6299 -3.6299 59.0735 0.0000 0.0000 0.0000
# 4 0.0000 0.0000 0.0000 26.4642 0.0000 0.0000
# 5 0.0000 0.0000 0.0000 0.0000 26.4642 0.0000
# 6 2.3262 -2.3262 0.0000 0.0000 0.0000 14.0827
#
#
#
# Elastic Compliance Matrix: (Units=1/GPa)
#
#
# Indices 1 2 3 4 5 6 
#
# 1 0.020368 -0.003919 0.001011 0.000000 0.000000 -0.004012
# 2 -0.003919 0.020368 0.001011 0.000000 0.000000 0.004012
# 3 0.001011 0.001011 0.017052 0.000000 0.000000 0.000000
# 4 0.000000 0.000000 0.000000 0.037787 0.000000 0.000000
# 5 0.000000 0.000000 0.000000 0.000000 0.037787 0.000000
# 6 -0.004012 0.004012 0.000000 0.000000 0.000000 0.072334
#
#
# Mechanical properties :
#
#
# Convention : Reuss Voigt Hill
#
# Bulk Modulus (GPa) = 18.52097 18.55949 18.54023
# Shear Modulus (GPa) = 21.97921 24.06020 23.01970
#
# Velocity S-wave (km/s) = 3.26522 3.41630 3.34161
# Velocity P-wave (km/s) = 4.81660 4.95624 4.88692
#
# Compressibility (1/GPa) = 0.05399286
#
# Stress axis : x y z
#
# Youngs Moduli (GPa) = 49.09771 49.09771 58.64314
#
# Poissons Ratio (x) = 0.19240 -0.05927
# Poissons Ratio (y) = 0.19240 -0.05927
# Poissons Ratio (z) = -0.04963 -0.04963
#
# Static dielectric constant tensor:
#      x y z
#    x 1.742140 0.000000 0.000000 
#    y 0.000000 1.742140 0.000000 
#    z 0.000000 0.000000 1.774440 
# 
# From -- ./inp_files/6552.got.cif
#   From: 2010.05.17/outbox.cif.g08.bks.cpg/sg88_4_cif.got.tgz:6552.got - 2010.06.03 19:11:41.
