data_PCOD9546557
_publ_section_title
;
Structure prediction by ZEFSAII (Michael W. Deem and Ramdas Pophale) SiO2 
 PCOD9546557
Probable space group: I 41/A
;
_chemical_formula_sum "Si O2"
_cell_formula_units_Z 112
_cell_length_a 14.007146
_cell_length_b 14.007146
_cell_length_c 25.226341
_cell_angle_alpha 90.000000
_cell_angle_beta 90.000000
_cell_angle_gamma 90.000000
_cell_volume 4949.411612
_symmetry_space_group_name_H-M "I 41/A"
_symmetry_group_IT_number 88
_space_group.IT_coordinate_system_code '2'
_symmetry_cell_setting 'tetragonal'
loop_
_space_group_symop_operation_xyz
x,y,z
3/4-y,1/4+x,1/4+z
-x,1/2-y,z
1/4+y,1/4-x,1/4+z
-x,-y,-z
1/4+y,3/4-x,3/4-z
x,1/2+y,-z
3/4-y,3/4+x,3/4-z
1/2+x,1/2+y,1/2+z
1/4-y,3/4+x,3/4+z
1/2-x,-y,1/2+z
3/4+y,3/4-x,3/4+z
1/2-x,1/2-y,1/2-z
3/4+y,1/4-x,1/4-z
1/2+x,y,1/2-z
1/4-y,1/4+x,1/4-z
loop_
_atom_site_type_symbol
_atom_site_label
_atom_site_fract_x
_atom_site_fract_y
_atom_site_fract_z
Si Si1 0.142657 0.294663 0.757133
Si Si2 0.093469 0.320952 0.880116
Si Si3 0.302691 0.999242 0.481018
Si Si4 0.835477 0.647112 0.523454
Si Si5 0.766755 0.372825 0.126877
Si Si6 0.562202 0.525772 0.566887
Si Si7 0.739117 0.680929 0.036991
O O1 0.250000 0.250000 0.750000
O O2 0.121066 0.331960 0.817513
O O3 0.087321 0.193253 0.756115
O O4 0.111076 0.378605 0.715773
O O5 0.065474 0.418455 0.910245
O O6 0.195738 0.300848 0.910737
O O7 0.000000 0.250000 0.885032
O O8 0.301959 0.979122 0.419374
O O9 0.402431 0.963744 0.506556
O O10 0.295607 0.108465 0.498646
O O11 0.209602 0.953389 0.507189
O O12 0.815397 0.656292 0.585828
O O13 0.769181 0.720401 0.493134
O O14 0.810888 0.288300 0.162055
O O15 0.852211 0.419325 0.095373
#
# Coordination Sequence:
#
# PCOD9546557 Si02
#       7
#    16  16  16  16  16  16  16
#     4  12  24  46  72 106 149 192 242 317 391 451
#     4  11  25  47  77 103 144 202 252 300 386 471
#     4  10  22  40  63  96 138 177 237 300 355 443
#     4  11  24  39  71  97 136 191 233 298 375 444
#     4  11  21  40  64  94 139 183 236 293 372 437
#     4  10  23  38  64  98 131 187 232 300 363 439
#     4  11  24  47  69 107 141 186 252 304 364 461
#
# _framework density 22.628952999999999
#
# number of rings (size 3 to 8) (size 9 to 14) (size 15 to 20)
#    0.000    1.143    1.429    5.143    4.000    0.286 
#    5.143    0.000    0.000    0.000    0.000    0.000 
#    0.000    0.000    0.000    0.000    0.000    0.000 
#
# Total GULP energy -312031.904818 kJ/mol
# GULP energy per Si atom -5571.998300 kJ/mol
# Density = 2.257745 g / cm^3
# Si number density = 22.628953 Si / 1000 Ang^3
#
#
#
# Elastic Constant Matrix: (Units=GPa)
#
#
# Indices 1 2 3 4 5 6 
#
# 1 103.5756 0.3775 10.7274 0.0000 0.0000 8.0232
# 2 0.3775 103.5756 10.7274 0.0000 0.0000 -8.0232
# 3 10.7274 10.7274 67.8547 0.0000 0.0000 0.0000
# 4 0.0000 0.0000 0.0000 14.8233 0.0000 0.0000
# 5 0.0000 0.0000 0.0000 0.0000 14.8233 0.0000
# 6 8.0232 -8.0232 0.0000 0.0000 0.0000 40.1466
#
#
#
# Elastic Compliance Matrix: (Units=1/GPa)
#
#
# Indices 1 2 3 4 5 6 
#
# 1 0.009973 -0.000028 -0.001572 0.000000 0.000000 -0.001999
# 2 -0.000028 0.009973 -0.001572 0.000000 0.000000 0.001999
# 3 -0.001572 -0.001572 0.015234 0.000000 0.000000 0.000000
# 4 0.000000 0.000000 0.000000 0.067461 0.000000 0.000000
# 5 0.000000 0.000000 0.000000 0.000000 0.067461 0.000000
# 6 -0.001999 0.001999 0.000000 0.000000 0.000000 0.025708
#
#
# Mechanical properties :
#
#
# Convention : Reuss Voigt Hill
#
# Bulk Modulus (GPa) = 34.68084 35.40785 35.04435
# Shear Modulus (GPa) = 23.61096 30.83688 27.22392
#
# Velocity S-wave (km/s) = 3.23367 3.69551 3.47227
# Velocity P-wave (km/s) = 5.41307 5.82152 5.62101
#
# Compressibility (1/GPa) = 0.02883436
#
# Stress axis : x y z
#
# Youngs Moduli (GPa) = 100.27540 100.27540 65.64070
#
# Poissons Ratio (x) = 0.00284 0.10319
# Poissons Ratio (y) = 0.00284 0.10319
# Poissons Ratio (z) = 0.15764 0.15764
#
# Static dielectric constant tensor:
#      x y z
#    x 1.925920 0.000000 0.000000 
#    y 0.000000 1.925920 0.000000 
#    z 0.000000 0.000000 1.867590 
# 
# From -- ./inp_files/5329.got.cif
#   From: 2010.05.17/outbox.cif.g08.bks.cpg/sg88_3_cif.got.tgz:5329.got - 2010.06.03 19:11:41.
