data_PCOD9546405
_publ_section_title
;
Structure prediction by ZEFSAII (Michael W. Deem and Ramdas Pophale) SiO2 
 PCOD9546405
Probable space group: I 41/A
;
_chemical_formula_sum "Si O2"
_cell_formula_units_Z 112
_cell_length_a 16.387084
_cell_length_b 16.387084
_cell_length_c 18.423738
_cell_angle_alpha 90.000000
_cell_angle_beta 90.000000
_cell_angle_gamma 90.000000
_cell_volume 4947.446525
_symmetry_space_group_name_H-M "I 41/A"
_symmetry_group_IT_number 88
_space_group.IT_coordinate_system_code '2'
_symmetry_cell_setting 'tetragonal'
loop_
_space_group_symop_operation_xyz
x,y,z
3/4-y,1/4+x,1/4+z
-x,1/2-y,z
1/4+y,1/4-x,1/4+z
-x,-y,-z
1/4+y,3/4-x,3/4-z
x,1/2+y,-z
3/4-y,3/4+x,3/4-z
1/2+x,1/2+y,1/2+z
1/4-y,3/4+x,3/4+z
1/2-x,-y,1/2+z
3/4+y,3/4-x,3/4+z
1/2-x,1/2-y,1/2-z
3/4+y,1/4-x,1/4-z
1/2+x,y,1/2-z
1/4-y,1/4+x,1/4-z
loop_
_atom_site_type_symbol
_atom_site_label
_atom_site_fract_x
_atom_site_fract_y
_atom_site_fract_z
Si Si1 0.306087 0.015343 0.907817
Si Si2 0.363939 0.145324 0.307135
Si Si3 0.933132 0.641477 0.347174
Si Si4 0.465746 0.889631 0.717771
Si Si5 0.814071 0.847698 0.684481
Si Si6 0.502532 0.421119 0.706544
Si Si7 0.173211 0.044694 0.811173
O O1 0.381579 0.067195 0.878998
O O2 0.224201 0.063434 0.882770
O O3 0.305639 0.928496 0.867279
O O4 0.301807 0.013444 0.994414
O O5 0.449134 0.156079 0.265978
O O6 0.368521 0.194871 0.382399
O O7 0.273790 0.163990 0.277122
O O8 0.359796 0.047636 0.321201
O O9 0.891893 0.726471 0.368739
O O10 0.946596 0.634816 0.260906
O O11 0.387429 0.859170 0.760690
O O12 0.477979 0.986145 0.732183
O O13 0.832887 0.777747 0.626890
O O14 0.406127 0.404471 0.709926
#
# Coordination Sequence:
#
# PCOD9546405 Si02
#       7
#    16  16  16  16  16  16  16
#     4  11  21  39  65  96 122 174 220 272 331 396
#     4   9  22  37  66  96 132 173 222 267 338 406
#     4  11  22  39  67  85 132 178 213 268 340 401
#     4  10  20  42  64  97 133 176 218 280 332 407
#     4  10  21  37  74  95 131 173 220 279 337 394
#     4  10  20  42  62  97 130 167 220 275 332 395
#     4  10  22  38  65  95 130 164 226 278 321 405
#
# _framework density 22.63794
#
# number of rings (size 3 to 8) (size 9 to 14) (size 15 to 20)
#    0.000    1.857    2.857    0.857   10.000    0.286 
#    2.571    7.857    0.000    0.000    0.000    0.000 
#    0.000    0.000    0.000    0.000    0.000    0.000 
#
# Total GULP energy -313002.599094 kJ/mol
# GULP energy per Si atom -5589.332127 kJ/mol
# Density = 2.258642 g / cm^3
# Si number density = 22.637940 Si / 1000 Ang^3
#
#
#
# Elastic Constant Matrix: (Units=GPa)
#
#
# Indices 1 2 3 4 5 6 
#
# 1 79.0669 25.5272 20.6666 0.0000 0.0000 6.2806
# 2 25.5272 79.0669 20.6666 0.0000 0.0000 -6.2806
# 3 20.6666 20.6666 42.4552 0.0000 0.0000 0.0000
# 4 0.0000 0.0000 0.0000 27.8113 0.0000 0.0000
# 5 0.0000 0.0000 0.0000 0.0000 27.8113 0.0000
# 6 6.2806 -6.2806 0.0000 0.0000 0.0000 18.1959
#
#
#
# Elastic Compliance Matrix: (Units=1/GPa)
#
#
# Indices 1 2 3 4 5 6 
#
# 1 0.016081 -0.004243 -0.005763 0.000000 0.000000 -0.007015
# 2 -0.004243 0.016081 -0.005763 0.000000 0.000000 0.007015
# 3 -0.005763 -0.005763 0.029165 0.000000 0.000000 0.000000
# 4 0.000000 0.000000 0.000000 0.035957 0.000000 0.000000
# 5 0.000000 0.000000 0.000000 0.000000 0.035957 0.000000
# 6 -0.007015 0.007015 0.000000 0.000000 0.000000 0.059800
#
#
# Mechanical properties :
#
#
# Convention : Reuss Voigt Hill
#
# Bulk Modulus (GPa) = 33.56805 37.14554 35.35680
# Shear Modulus (GPa) = 21.32149 23.67895 22.50022
#
# Velocity S-wave (km/s) = 3.07228 3.23768 3.15606
# Velocity P-wave (km/s) = 5.23886 5.51551 5.37897
#
# Compressibility (1/GPa) = 0.02979023
#
# Stress axis : x y z
#
# Youngs Moduli (GPa) = 62.18615 62.18615 34.28821
#
# Poissons Ratio (x) = 0.26384 0.19759
# Poissons Ratio (y) = 0.26384 0.19759
# Poissons Ratio (z) = 0.35835 0.35835
#
# Static dielectric constant tensor:
#      x y z
#    x 1.858180 0.000000 0.000000 
#    y 0.000000 1.858180 0.000000 
#    z 0.000000 0.000000 1.825670 
# 
# From -- ./inp_files/4840.got.cif
#   From: 2010.05.17/outbox.cif.g08.bks.cpg/sg88_3_cif.got.tgz:4840.got - 2010.06.03 19:11:41.
