data_PCOD9547494
_publ_section_title
;
Structure prediction by ZEFSAII (Michael W. Deem and Ramdas Pophale) SiO2 
 PCOD9547494
Probable space group: P 41 2 2
;
_chemical_formula_sum "Si O2"
_cell_formula_units_Z 44
_cell_length_a 8.539055
_cell_length_b 8.539055
_cell_length_c 31.670305
_cell_angle_alpha 90.000000
_cell_angle_beta 90.000000
_cell_angle_gamma 90.000000
_cell_volume 2309.254867
_symmetry_space_group_name_H-M "P 41 2 2"
_symmetry_group_IT_number 91
_symmetry_cell_setting 'tetragonal'
loop_
_space_group_symop_operation_xyz
x,y,z
-y,x,1/4+z
-x,-y,1/2+z
y,-x,3/4+z
x,-y,1/2-z
-x,y,-z
y,x,3/4-z
-y,-x,1/4-z
loop_
_atom_site_type_symbol
_atom_site_label
_atom_site_fract_x
_atom_site_fract_y
_atom_site_fract_z
Si Si1 0.707837 0.535081 0.603324
Si Si2 0.426983 0.802096 0.454233
Si Si3 0.166246 0.018966 0.493324
Si Si4 0.157406 0.375516 0.474986
Si Si5 0.386458 0.903420 0.931338
Si Si6 0.671351 0.500000 0.750000
O O1 0.591414 0.408587 0.625000
O O2 0.609167 0.655618 0.574956
O O3 0.824948 0.450095 0.570874
O O4 0.810974 0.626827 0.637958
O O5 0.500000 0.759458 0.500000
O O6 0.276034 0.903077 0.467744
O O7 0.533765 0.927173 0.429389
O O8 0.146237 0.187216 0.471162
O O9 0.237537 0.066040 0.538921
O O10 0.000000 0.941586 0.500000
O O11 0.328076 0.408861 0.497596
O O12 0.000000 0.426065 0.500000
O O13 0.493228 0.787663 0.960005
#
# Coordination Sequence:
#
# PCOD9547494 Si02
#       6
#     8   8   8   8   8   4
#     4  12  24  37  60  93 125 158 209 267 307 379
#     4  10  21  39  61  84 122 169 198 250 332 391
#     4   9  18  38  64  84 112 163 208 250 317 383
#     4  10  21  37  62  91 120 168 212 253 317 391
#     4  10  19  39  59  84 118 159 202 260 313 377
#     4  10  16  38  64  80 124 164 208 254 330 366
#
# _framework density 19.053767000000001
#
# number of rings (size 3 to 8) (size 9 to 14) (size 15 to 20)
#    0.000    1.818    6.364    0.000    1.273    5.091 
#    0.000    6.364    0.000    0.000    0.000    0.000 
#    0.000    0.000    0.000    0.000    0.000    0.000 
#
# Total GULP energy -245139.421933 kJ/mol
# GULP energy per Si atom -5571.350498 kJ/mol
# Density = 1.901040 g / cm^3
# Si number density = 19.053767 Si / 1000 Ang^3
#
#
#
# Elastic Constant Matrix: (Units=GPa)
#
#
# Indices 1 2 3 4 5 6 
#
# 1 74.4840 18.8968 27.9621 0.0000 0.0000 0.0000
# 2 18.8968 74.4847 27.9624 0.0000 0.0000 0.0000
# 3 27.9621 27.9624 80.2782 0.0000 0.0000 0.0000
# 4 0.0000 0.0000 0.0000 21.2377 0.0000 0.0000
# 5 0.0000 0.0000 0.0000 0.0000 21.2378 0.0000
# 6 0.0000 0.0000 0.0000 0.0000 0.0000 14.2306
#
#
#
# Elastic Compliance Matrix: (Units=1/GPa)
#
#
# Indices 1 2 3 4 5 6 
#
# 1 0.015761 -0.002229 -0.004713 0.000000 0.000000 0.000000
# 2 -0.002229 0.015761 -0.004713 0.000000 0.000000 0.000000
# 3 -0.004713 -0.004713 0.015740 0.000000 0.000000 0.000000
# 4 0.000000 0.000000 0.000000 0.047086 0.000000 0.000000
# 5 0.000000 0.000000 0.000000 0.000000 0.047086 0.000000
# 6 0.000000 0.000000 0.000000 0.000000 0.000000 0.070271
#
#
# Mechanical properties :
#
#
# Convention : Reuss Voigt Hill
#
# Bulk Modulus (GPa) = 41.75351 42.09884 41.92617
# Shear Modulus (GPa) = 20.57623 21.63626 21.10624
#
# Velocity S-wave (km/s) = 3.28975 3.37343 3.33185
# Velocity P-wave (km/s) = 6.03250 6.10869 6.07071
#
# Compressibility (1/GPa) = 0.02395008
#
# Stress axis : x y z
#
# Youngs Moduli (GPa) = 63.44927 63.44969 63.53200
#
# Poissons Ratio (x) = 0.14143 0.29944
# Poissons Ratio (y) = 0.14143 0.29944
# Poissons Ratio (z) = 0.29905 0.29906
#
# Static dielectric constant tensor:
#      x y z
#    x 1.696640 0.000000 0.000000 
#    y 0.000000 1.696640 0.000000 
#    z 0.000000 0.000000 1.674450 
# 
# From -- ./inp_files/18106.got.cif
#   From: 2010.05.17/outbox.cif.g08.bks.cpg/sg91_10_cif.got.tgz:18106.got - 2010.06.03 19:20:03.
