data_PCOD9547670
_publ_section_title
;
Structure prediction by ZEFSAII (Michael W. Deem and Ramdas Pophale) SiO2 
 PCOD9547670
Probable space group: P 41 2 2
;
_chemical_formula_sum "Si O2"
_cell_formula_units_Z 64
_cell_length_a 14.943907
_cell_length_b 14.943907
_cell_length_c 19.314030
_cell_angle_alpha 90.000000
_cell_angle_beta 90.000000
_cell_angle_gamma 90.000000
_cell_volume 4313.216064
_symmetry_space_group_name_H-M "P 41 2 2"
_symmetry_group_IT_number 91
_symmetry_cell_setting 'tetragonal'
loop_
_space_group_symop_operation_xyz
x,y,z
-y,x,1/4+z
-x,-y,1/2+z
y,-x,3/4+z
x,-y,1/2-z
-x,y,-z
y,x,3/4-z
-y,-x,1/4-z
loop_
_atom_site_type_symbol
_atom_site_label
_atom_site_fract_x
_atom_site_fract_y
_atom_site_fract_z
Si Si1 0.540369 0.129660 0.574364
Si Si2 0.917488 0.790351 0.333423
Si Si3 0.385127 0.120704 0.676576
Si Si4 0.453322 0.087796 0.071598
Si Si5 0.131416 0.787959 0.336908
Si Si6 0.746647 0.135197 0.573877
Si Si7 0.079413 0.754389 0.825757
Si Si8 0.387782 0.903466 0.666775
O O1 0.500000 0.158271 0.500000
O O2 0.473854 0.153496 0.636931
O O3 0.642266 0.159488 0.583850
O O4 0.543644 0.020921 0.571596
O O5 0.866824 0.866824 0.375000
O O6 0.900065 0.790337 0.251456
O O7 0.886408 0.695586 0.365989
O O8 0.024229 0.800238 0.342779
O O9 0.299798 0.152072 0.632747
O O10 0.377520 0.140119 0.757914
O O11 0.387511 0.011925 0.673275
O O12 0.349199 0.110487 0.078184
O O13 0.517645 0.120776 0.132601
O O14 0.500000 0.116415 0.000000
O O15 0.151707 0.771048 0.256436
O O16 0.185820 0.870199 0.368280
O O17 0.809761 0.190240 0.625000
O O18 0.756232 0.028039 0.585448
#
# Coordination Sequence:
#
# PCOD9547670 Si02
#       8
#     8   8   8   8   8   8   8   8
#     4   9  15  29  51  67  85 121 155 190 246 290
#     4  10  19  31  46  64  91 129 169 205 234 268
#     4   9  16  27  46  69  89 113 152 202 245 275
#     4   9  15  28  47  66  89 118 154 190 241 300
#     4  10  20  33  46  65  94 128 168 204 232 273
#     4  10  21  34  48  68  97 129 161 200 239 288
#     4  10  20  32  48  66  93 134 164 192 243 287
#     4   9  16  26  44  69  90 111 150 203 244 282
#
# _framework density 14.838115999999999
#
# number of rings (size 3 to 8) (size 9 to 14) (size 15 to 20)
#    0.000    2.500    2.500    0.750    0.000    3.500 
#    0.000    5.000    0.000    0.000    0.000    0.000 
#    0.000    2.000    0.000    0.250    0.000    0.000 
#
# Total GULP energy -356477.459981 kJ/mol
# GULP energy per Si atom -5569.960312 kJ/mol
# Density = 1.480434 g / cm^3
# Si number density = 14.838116 Si / 1000 Ang^3
#
#
#
# Elastic Constant Matrix: (Units=GPa)
#
#
# Indices 1 2 3 4 5 6 
#
# 1 49.0520 31.5316 39.9924 0.0000 0.0000 0.0000
# 2 31.5316 49.0539 39.9922 0.0000 0.0000 0.0000
# 3 39.9924 39.9922 96.4568 0.0000 0.0000 0.0000
# 4 0.0000 0.0000 0.0000 24.1621 0.0000 0.0000
# 5 0.0000 0.0000 0.0000 0.0000 24.1620 0.0000
# 6 0.0000 0.0000 0.0000 0.0000 0.0000 -2.4981
#
#
#
# Elastic Compliance Matrix: (Units=1/GPa)
#
#
# Indices 1 2 3 4 5 6 
#
# 1 0.039082 -0.017993 -0.008744 0.000000 0.000000 0.000000
# 2 -0.017993 0.039079 -0.008743 0.000000 0.000000 0.000000
# 3 -0.008744 -0.008743 0.017617 0.000000 0.000000 0.000000
# 4 0.000000 0.000000 0.000000 0.041387 0.000000 0.000000
# 5 0.000000 0.000000 0.000000 0.000000 0.041387 0.000000
# 6 0.000000 0.000000 0.000000 0.000000 0.000000 -0.400304
#
#
# Mechanical properties :
#
#
# Convention : Reuss Voigt Hill
#
# Bulk Modulus (GPa) = 40.29067 46.39943 43.34505
# Shear Modulus (GPa) = -35.08273 14.70163 -10.19055
#
# Velocity S-wave (km/s) = -4.86775 3.15112 -2.62350
# Velocity P-wave (km/s) = 2.09305 6.67665 4.48312
#
# Compressibility (1/GPa) = 0.02481964
#
# Stress axis : x y z
#
# Youngs Moduli (GPa) = 25.58755 25.58916 56.76225
#
# Poissons Ratio (x) = 0.46042 0.49631
# Poissons Ratio (y) = 0.46040 0.49625
# Poissons Ratio (z) = 0.22373 0.22371
#
# Static dielectric constant tensor:
#      x y z
#    x 1.479790 0.000000 0.000000 
#    y 0.000000 1.479790 0.000000 
#    z 0.000000 0.000000 1.499470 
# 
# From -- ./inp_files/5722.got.cif
#   From: 2010.05.17/outbox.cif.g08.bks.cpg/sg91_3_cif.got.tgz:5722.got - 2010.06.03 19:20:03.
