data_PCOD9547386
_publ_section_title
;
Structure prediction by ZEFSAII (Michael W. Deem and Ramdas Pophale) SiO2 
 PCOD9547386
Probable space group: P 4 21 2
;
_chemical_formula_sum "Si O2"
_cell_formula_units_Z 48
_cell_length_a 8.390752
_cell_length_b 8.390752
_cell_length_c 34.014786
_cell_angle_alpha 90.000000
_cell_angle_beta 90.000000
_cell_angle_gamma 90.000000
_cell_volume 2394.801454
_symmetry_space_group_name_H-M "P 4 21 2"
_symmetry_group_IT_number 90
_symmetry_cell_setting 'tetragonal'
loop_
_space_group_symop_operation_xyz
x,y,z
1/2-y,1/2+x,z
-x,-y,z
1/2+y,1/2-x,z
1/2+x,1/2-y,-z
1/2-x,1/2+y,-z
y,x,-z
-y,-x,-z
loop_
_atom_site_type_symbol
_atom_site_label
_atom_site_fract_x
_atom_site_fract_y
_atom_site_fract_z
Si Si1 0.422171 0.741292 0.036483
Si Si2 0.500000 0.500000 0.308372
Si Si3 0.739608 0.570633 0.169362
Si Si4 0.961813 0.237171 0.379590
Si Si5 0.000000 0.000000 0.897377
Si Si6 0.052313 0.762828 0.762750
Si Si7 0.935618 0.237245 0.466011
O O1 0.602927 0.808836 0.035406
O O2 0.415336 0.630940 0.075042
O O3 0.367881 0.632120 0.000000
O O4 0.360497 0.470458 0.339849
O O5 0.527735 0.647222 0.278606
O O6 0.811864 0.391970 0.170227
O O7 0.631025 0.582402 0.130558
O O8 0.625278 0.613413 0.205814
O O9 0.827091 0.370726 0.379357
O O10 0.930386 0.161002 0.422383
O O11 0.178330 0.618392 0.767410
O O12 0.815452 0.389121 0.469087
O O13 0.880951 0.119050 0.500000
#
# Coordination Sequence:
#
# PCOD9547386 Si02
#       7
#     8   4   8   8   4   8   8
#     4  11  24  42  65  93 129 175 222 270 326 383
#     4  12  21  36  61  87 112 151 203 248 297 364
#     4  11  24  42  66  96 130 170 214 257 308 376
#     4   9  20  37  55  80 115 151 190 239 294 353
#     4  12  22  40  64  95 132 167 214 274 320 370
#     4  11  24  42  63  89 124 162 202 256 318 375
#     4   9  19  35  54  79 111 147 189 236 288 347
#
# _framework density 20.043413999999999
#
# number of rings (size 3 to 8) (size 9 to 14) (size 15 to 20)
#    0.000    1.500    0.000    6.750    0.000    3.000 
#    0.000    5.000    0.000    2.000    0.000    0.000 
#    0.000    0.000    0.000    0.000    0.000    0.000 
#
# Total GULP energy -267530.534956 kJ/mol
# GULP energy per Si atom -5573.552812 kJ/mol
# Density = 1.999779 g / cm^3
# Si number density = 20.043414 Si / 1000 Ang^3
#
#
#
# Elastic Constant Matrix: (Units=GPa)
#
#
# Indices 1 2 3 4 5 6 
#
# 1 74.6998 63.6032 78.1823 0.0000 0.0000 0.0000
# 2 63.6032 74.7016 78.1824 0.0000 0.0000 0.0000
# 3 78.1823 78.1824 186.4302 0.0000 0.0000 0.0000
# 4 0.0000 0.0000 0.0000 25.9850 0.0000 0.0000
# 5 0.0000 0.0000 0.0000 0.0000 25.9855 0.0000
# 6 0.0000 0.0000 0.0000 0.0000 0.0000 36.6243
#
#
#
# Elastic Compliance Matrix: (Units=1/GPa)
#
#
# Indices 1 2 3 4 5 6 
#
# 1 0.051931 -0.038180 -0.005766 0.000000 0.000000 0.000000
# 2 -0.038180 0.051929 -0.005766 0.000000 0.000000 0.000000
# 3 -0.005766 -0.005766 0.010200 0.000000 0.000000 0.000000
# 4 0.000000 0.000000 0.000000 0.038484 0.000000 0.000000
# 5 0.000000 0.000000 0.000000 0.000000 0.038483 0.000000
# 6 0.000000 0.000000 0.000000 0.000000 0.000000 0.027304
#
#
# Mechanical properties :
#
#
# Convention : Reuss Voigt Hill
#
# Bulk Modulus (GPa) = 68.33001 86.19638 77.26319
# Shear Modulus (GPa) = 15.49744 25.44319 20.47031
#
# Velocity S-wave (km/s) = 2.78365 3.56673 3.19924
# Velocity P-wave (km/s) = 6.67058 7.74986 7.23039
#
# Compressibility (1/GPa) = 0.01463486
#
# Stress axis : x y z
#
# Youngs Moduli (GPa) = 19.25637 19.25715 98.03806
#
# Poissons Ratio (x) = 0.73524 0.56534
# Poissons Ratio (y) = 0.73521 0.56525
# Poissons Ratio (z) = 0.11104 0.11103
#
# Static dielectric constant tensor:
#      x y z
#    x 1.753500 0.000000 0.000000 
#    y 0.000000 1.753500 0.000000 
#    z 0.000000 0.000000 1.701570 
# 
# From -- ./inp_files/3116.got.cif
#   From: 2010.05.17/outbox.cif.g08.bks.cpg/sg90_2_cif.got.tgz:3116.got - 2010.06.03 19:17:45.
