data_PCOD9547089
_publ_section_title
;
Structure prediction by ZEFSAII (Michael W. Deem and Ramdas Pophale) SiO2 
 PCOD9547089
Probable space group: P 4 21 2
;
_chemical_formula_sum "Si O2"
_cell_formula_units_Z 52
_cell_length_a 15.211793
_cell_length_b 15.211793
_cell_length_c 9.216204
_cell_angle_alpha 90.000000
_cell_angle_beta 90.000000
_cell_angle_gamma 90.000000
_cell_volume 2132.617129
_symmetry_space_group_name_H-M "P 4 21 2"
_symmetry_group_IT_number 90
_symmetry_cell_setting 'tetragonal'
loop_
_space_group_symop_operation_xyz
x,y,z
1/2-y,1/2+x,z
-x,-y,z
1/2+y,1/2-x,z
1/2+x,1/2-y,-z
1/2-x,1/2+y,-z
y,x,-z
-y,-x,-z
loop_
_atom_site_type_symbol
_atom_site_label
_atom_site_fract_x
_atom_site_fract_y
_atom_site_fract_z
Si Si1 0.101532 0.015648 0.708787
Si Si2 0.813045 0.186956 0.000000
Si Si3 0.019326 0.199555 0.018350
Si Si4 0.058407 0.368530 0.533694
Si Si5 0.303195 0.555093 0.690378
Si Si6 0.673805 0.659333 0.662664
Si Si7 0.134887 0.551034 0.190149
O O1 0.113225 0.112546 0.648927
O O2 0.114232 0.020045 0.881025
O O3 0.161797 0.934221 0.663806
O O4 0.000000 0.000000 0.673918
O O5 0.786815 0.084768 0.001071
O O6 0.797400 0.205746 0.818414
O O7 0.067742 0.275940 0.107413
O O8 0.061688 0.199742 0.862893
O O9 0.111167 0.456591 0.569857
O O10 0.088884 0.284710 0.619163
O O11 0.060959 0.353966 0.361851
O O12 0.310562 0.448012 0.664039
O O13 0.696225 0.696225 0.500000
O O14 0.049587 0.608248 0.153923
#
# Coordination Sequence:
#
# PCOD9547089 Si02
#       7
#     8   4   8   8   8   8   8
#     4   9  19  34  55  84 122 160 199 231 284 358
#     4   8  18  32  51  86 120 158 190 241 296 342
#     4  10  19  34  58  86 117 154 193 244 294 351
#     4   9  20  40  62  82 108 147 196 259 313 356
#     4  10  20  31  55  86 116 145 190 240 293 354
#     4   9  18  32  52  84 116 158 201 236 277 351
#     4   9  20  40  65  86 107 150 209 252 303 366
#
# _framework density 24.383187
#
# number of rings (size 3 to 8) (size 9 to 14) (size 15 to 20)
#    0.000    2.769    0.000    2.308    4.308    8.308 
#    0.000    1.538   16.923    0.000    0.000    0.000 
#    0.000    0.000    0.000    0.000    0.000    0.000 
#
# Total GULP energy -289805.957226 kJ/mol
# GULP energy per Si atom -5573.191485 kJ/mol
# Density = 2.432769 g / cm^3
# Si number density = 24.383187 Si / 1000 Ang^3
#
#
#
# Elastic Constant Matrix: (Units=GPa)
#
#
# Indices 1 2 3 4 5 6 
#
# 1 21.0901 22.4222 37.0123 0.0000 0.0000 0.0000
# 2 22.4222 21.0886 37.0110 0.0000 0.0000 0.0000
# 3 37.0123 37.0110 130.0241 0.0000 0.0000 0.0000
# 4 0.0000 0.0000 0.0000 -5.1169 0.0000 0.0000
# 5 0.0000 0.0000 0.0000 0.0000 -5.1158 0.0000
# 6 0.0000 0.0000 0.0000 0.0000 0.0000 -1.2022
#
#
#
# Elastic Compliance Matrix: (Units=1/GPa)
#
#
# Indices 1 2 3 4 5 6 
#
# 1 -0.352859 0.397432 -0.012684 0.000000 0.000000 0.000000
# 2 0.397432 -0.352881 -0.012686 0.000000 0.000000 0.000000
# 3 -0.012684 -0.012686 0.014912 0.000000 0.000000 0.000000
# 4 0.000000 0.000000 0.000000 -0.195430 0.000000 0.000000
# 5 0.000000 0.000000 0.000000 0.000000 -0.195474 0.000000
# 6 0.000000 0.000000 0.000000 0.000000 0.000000 -0.831842
#
#
# Mechanical properties :
#
#
# Convention : Reuss Voigt Hill
#
# Bulk Modulus (GPa) = 18.76254 40.56597 29.66426
# Shear Modulus (GPa) = -1.89399 2.76353 0.43477
#
# Velocity S-wave (km/s) = -0.88230 1.06576 0.42272
# Velocity P-wave (km/s) = 2.58334 4.26467 3.52570
#
# Compressibility (1/GPa) = 0.05329768
#
# Stress axis : x y z
#
# Youngs Moduli (GPa) = -2.83399 -2.83382 67.05861
#
# Poissons Ratio (x) = 1.12625 0.85056
# Poissons Ratio (y) = 1.12632 0.85068
# Poissons Ratio (z) = -0.03595 -0.03595
#
# Static dielectric constant tensor:
#      x y z
#    x 1.977310 0.000000 0.000000 
#    y 0.000000 1.977310 0.000000 
#    z 0.000000 0.000000 1.978340 
# 
# From -- ./inp_files/1599.got.cif
#   From: 2010.05.17/outbox.cif.g08.bks.cpg/sg90_1_cif.got.tgz:1599.got - 2010.06.03 19:17:45.
