data_PCOD9547371
_publ_section_title
;
Structure prediction by ZEFSAII (Michael W. Deem and Ramdas Pophale) SiO2 
 PCOD9547371
Probable space group: P 4 21 2
;
_chemical_formula_sum "Si O2"
_cell_formula_units_Z 50
_cell_length_a 9.482055
_cell_length_b 9.482055
_cell_length_c 28.596182
_cell_angle_alpha 90.000000
_cell_angle_beta 90.000000
_cell_angle_gamma 90.000000
_cell_volume 2571.064623
_symmetry_space_group_name_H-M "P 4 21 2"
_symmetry_group_IT_number 90
_symmetry_cell_setting 'tetragonal'
loop_
_space_group_symop_operation_xyz
x,y,z
1/2-y,1/2+x,z
-x,-y,z
1/2+y,1/2-x,z
1/2+x,1/2-y,-z
1/2-x,1/2+y,-z
y,x,-z
-y,-x,-z
loop_
_atom_site_type_symbol
_atom_site_label
_atom_site_fract_x
_atom_site_fract_y
_atom_site_fract_z
Si Si1 0.181050 0.343521 0.541447
Si Si2 0.349970 0.182360 0.729631
Si Si3 0.259063 0.786115 0.177144
Si Si4 0.845359 0.319840 0.379570
Si Si5 0.500000 0.000000 0.162169
Si Si6 0.159592 0.024057 0.877819
Si Si7 0.781858 0.425215 0.022604
O O1 0.192119 0.513846 0.538937
O O2 0.266336 0.266336 0.500000
O O3 0.252953 0.281019 0.588095
O O4 0.518424 0.190561 0.737128
O O5 0.272523 0.276840 0.767722
O O6 0.321660 0.212790 0.675220
O O7 0.337341 0.645832 0.160485
O O8 0.114434 0.786914 0.148144
O O9 0.347023 0.921691 0.163810
O O10 0.808233 0.485457 0.388189
O O11 0.253866 0.067529 0.922049
O O12 0.000000 0.000000 0.894834
O O13 0.827202 0.584046 0.009245
O O14 0.643966 0.356035 0.000000
#
# Coordination Sequence:
#
# PCOD9547371 Si02
#       7
#     8   8   8   8   2   8   8
#     4  11  24  41  61  90 123 166 219 273 332 396
#     4   9  18  35  66  98 127 165 218 271 320 375
#     4  12  23  43  67  99 132 172 223 274 323 398
#     4   9  19  38  62  93 127 165 212 269 327 386
#     4  12  28  44  56  96 140 176 212 256 356 388
#     4  12  25  42  73 100 132 171 225 275 323 385
#     4  11  27  47  70 104 135 173 218 267 327 395
#
# _framework density 19.447198
#
# number of rings (size 3 to 8) (size 9 to 14) (size 15 to 20)
#    0.000    1.280    4.800    1.920    2.240    3.840 
#    2.880    0.000    0.000    0.000    0.000    0.000 
#    0.000    0.000    0.000    0.000    0.000    0.000 
#
# Total GULP energy -278675.444325 kJ/mol
# GULP energy per Si atom -5573.508886 kJ/mol
# Density = 1.940294 g / cm^3
# Si number density = 19.447198 Si / 1000 Ang^3
#
#
#
# Elastic Constant Matrix: (Units=GPa)
#
#
# Indices 1 2 3 4 5 6 
#
# 1 87.1747 54.8997 37.9293 0.0000 0.0000 0.0000
# 2 54.8997 87.1733 37.9301 0.0000 0.0000 0.0000
# 3 37.9293 37.9301 75.3649 0.0000 0.0000 0.0000
# 4 0.0000 0.0000 0.0000 33.7439 0.0000 0.0000
# 5 0.0000 0.0000 0.0000 0.0000 33.7453 0.0000
# 6 0.0000 0.0000 0.0000 0.0000 0.0000 52.8507
#
#
#
# Elastic Compliance Matrix: (Units=1/GPa)
#
#
# Indices 1 2 3 4 5 6 
#
# 1 0.020304 -0.010680 -0.004844 0.000000 0.000000 0.000000
# 2 -0.010680 0.020305 -0.004844 0.000000 0.000000 0.000000
# 3 -0.004844 -0.004844 0.018145 0.000000 0.000000 0.000000
# 4 0.000000 0.000000 0.000000 0.029635 0.000000 0.000000
# 5 0.000000 0.000000 0.000000 0.000000 0.029634 0.000000
# 6 0.000000 0.000000 0.000000 0.000000 0.000000 0.018921
#
#
# Mechanical properties :
#
#
# Convention : Reuss Voigt Hill
#
# Bulk Modulus (GPa) = 55.49892 56.80348 56.15120
# Shear Modulus (GPa) = 27.22036 31.99823 29.60929
#
# Velocity S-wave (km/s) = 3.74532 4.06074 3.90622
# Velocity P-wave (km/s) = 6.87775 7.15951 7.02005
#
# Compressibility (1/GPa) = 0.01801837
#
# Stress axis : x y z
#
# Youngs Moduli (GPa) = 49.25039 49.24876 55.11259
#
# Poissons Ratio (x) = 0.52596 0.26695
# Poissons Ratio (y) = 0.52598 0.26699
# Poissons Ratio (z) = 0.23856 0.23858
#
# Static dielectric constant tensor:
#      x y z
#    x 1.665230 0.000000 0.000000 
#    y 0.000000 1.665230 0.000000 
#    z 0.000000 0.000000 1.680310 
# 
# From -- ./inp_files/3055.got.cif
#   From: 2010.05.17/outbox.cif.g08.bks.cpg/sg90_2_cif.got.tgz:3055.got - 2010.06.03 19:17:45.
