data_PCOD9547885
_publ_section_title
;
Structure prediction by ZEFSAII (Michael W. Deem and Ramdas Pophale) SiO2 
 PCOD9547885
Probable space group: P 41 2 2
;
_chemical_formula_sum "Si O2"
_cell_formula_units_Z 64
_cell_length_a 11.961165
_cell_length_b 11.961165
_cell_length_c 25.090298
_cell_angle_alpha 90.000000
_cell_angle_beta 90.000000
_cell_angle_gamma 90.000000
_cell_volume 3589.655591
_symmetry_space_group_name_H-M "P 41 2 2"
_symmetry_group_IT_number 91
_symmetry_cell_setting 'tetragonal'
loop_
_space_group_symop_operation_xyz
x,y,z
-y,x,1/4+z
-x,-y,1/2+z
y,-x,3/4+z
x,-y,1/2-z
-x,y,-z
y,x,3/4-z
-y,-x,1/4-z
loop_
_atom_site_type_symbol
_atom_site_label
_atom_site_fract_x
_atom_site_fract_y
_atom_site_fract_z
Si Si1 0.971599 0.337765 0.440806
Si Si2 0.673434 0.848388 0.895904
Si Si3 0.996004 0.608637 0.440099
Si Si4 0.254598 0.628933 0.575451
Si Si5 0.228664 0.630394 0.765740
Si Si6 0.595485 0.167344 0.395595
Si Si7 0.627706 0.738048 0.643728
Si Si8 0.636161 0.971686 0.002961
O O1 0.987172 0.473097 0.440692
O O2 0.845666 0.318663 0.422342
O O3 0.000000 0.297661 0.500000
O O4 0.056032 0.294105 0.396407
O O5 0.739647 0.739647 0.875000
O O6 0.539009 0.833840 0.894582
O O7 0.689813 0.898280 0.955368
O O8 0.878026 0.647523 0.416748
O O9 0.000000 0.649785 0.500000
O O10 0.107912 0.636177 0.408459
O O11 0.316077 0.683924 0.625000
O O12 0.299948 0.682929 0.520292
O O13 0.274607 0.495858 0.581755
O O14 0.239774 0.500000 0.750000
O O15 0.242649 0.629452 0.829825
O O16 0.101869 0.668981 0.751612
O O17 0.633751 0.293071 0.403644
O O18 0.650135 0.090113 0.441151
O O19 0.500000 0.973295 0.000000
#
# Coordination Sequence:
#
# PCOD9547885 Si02
#       8
#     8   8   8   8   8   8   8   8
#     4   9  19  35  57  80 107 146 196 240 276 334
#     4  10  20  36  58  83 111 148 195 235 285 343
#     4   9  18  35  55  79 108 144 195 237 271 332
#     4  11  21  34  58  90 115 150 192 235 292 350
#     4  11  20  37  60  84 118 157 196 243 293 352
#     4  10  21  36  56  84 116 153 188 236 293 345
#     4  11  22  37  57  88 122 152 191 238 300 357
#     4   9  19  36  58  80 109 152 202 239 274 345
#
# _framework density 17.829008999999999
#
# number of rings (size 3 to 8) (size 9 to 14) (size 15 to 20)
#    0.000    2.000    2.500    1.500    5.250    1.500 
#    0.000    0.625    0.000    2.250    3.250    0.000 
#    0.000    0.000    0.000    0.000    0.000    0.000 
#
# Total GULP energy -356482.762408 kJ/mol
# GULP energy per Si atom -5570.043163 kJ/mol
# Density = 1.778843 g / cm^3
# Si number density = 17.829009 Si / 1000 Ang^3
#
#
#
# Elastic Constant Matrix: (Units=GPa)
#
#
# Indices 1 2 3 4 5 6 
#
# 1 64.9565 29.6730 26.1492 0.0000 0.0000 0.0000
# 2 29.6730 64.9565 26.1495 0.0000 0.0000 0.0000
# 3 26.1492 26.1495 107.4702 0.0000 0.0000 0.0000
# 4 0.0000 0.0000 0.0000 21.1375 0.0000 0.0000
# 5 0.0000 0.0000 0.0000 0.0000 21.1374 0.0000
# 6 0.0000 0.0000 0.0000 0.0000 0.0000 -8.4475
#
#
#
# Elastic Compliance Matrix: (Units=1/GPa)
#
#
# Indices 1 2 3 4 5 6 
#
# 1 0.020276 -0.008066 -0.002971 0.000000 0.000000 0.000000
# 2 -0.008066 0.020276 -0.002971 0.000000 0.000000 0.000000
# 3 -0.002971 -0.002971 0.010751 0.000000 0.000000 0.000000
# 4 0.000000 0.000000 0.000000 0.047309 0.000000 0.000000
# 5 0.000000 0.000000 0.000000 0.000000 0.047309 0.000000
# 6 0.000000 0.000000 0.000000 0.000000 0.000000 -0.118378
#
#
# Mechanical properties :
#
#
# Convention : Reuss Voigt Hill
#
# Bulk Modulus (GPa) = 42.94368 44.59184 43.76776
# Shear Modulus (GPa) = 78.96336 17.12625 48.04481
#
# Velocity S-wave (km/s) = 6.66224 3.10269 5.19673
# Velocity P-wave (km/s) = 9.12794 6.15636 7.78524
#
# Compressibility (1/GPa) = 0.02328632
#
# Stress axis : x y z
#
# Youngs Moduli (GPa) = 49.32037 49.32030 93.01830
#
# Poissons Ratio (x) = 0.39783 0.27633
# Poissons Ratio (y) = 0.39783 0.27634
# Poissons Ratio (z) = 0.14652 0.14652
#
# Static dielectric constant tensor:
#      x y z
#    x 1.612250 0.000000 0.000000 
#    y 0.000000 1.612250 0.000000 
#    z 0.000000 0.000000 1.639290 
# 
# From -- ./inp_files/12941.got.cif
#   From: 2010.05.17/outbox.cif.g08.bks.cpg/sg91_7_cif.got.tgz:12941.got - 2010.06.03 19:20:03.
