data_PCOD9547420
_publ_section_title
;
Structure prediction by ZEFSAII (Michael W. Deem and Ramdas Pophale) SiO2 
 PCOD9547420
Probable space group: P 4 21 2
;
_chemical_formula_sum "Si O2"
_cell_formula_units_Z 42
_cell_length_a 8.585061
_cell_length_b 8.585061
_cell_length_c 26.258347
_cell_angle_alpha 90.000000
_cell_angle_beta 90.000000
_cell_angle_gamma 90.000000
_cell_volume 1935.326101
_symmetry_space_group_name_H-M "P 4 21 2"
_symmetry_group_IT_number 90
_symmetry_cell_setting 'tetragonal'
loop_
_space_group_symop_operation_xyz
x,y,z
1/2-y,1/2+x,z
-x,-y,z
1/2+y,1/2-x,z
1/2+x,1/2-y,-z
1/2-x,1/2+y,-z
y,x,-z
-y,-x,-z
loop_
_atom_site_type_symbol
_atom_site_label
_atom_site_fract_x
_atom_site_fract_y
_atom_site_fract_z
Si Si1 0.093031 0.159214 0.847688
Si Si2 0.077050 0.249010 0.657636
Si Si3 0.780060 0.357523 0.051465
Si Si4 0.000000 0.500000 0.830716
Si Si5 0.578239 0.251562 0.456693
Si Si6 0.586701 0.243005 0.742759
O O1 0.186552 0.197750 0.899138
O O2 0.200876 0.115728 0.799927
O O3 0.989174 0.307545 0.832015
O O4 0.000000 0.000000 0.858499
O O5 0.186002 0.402468 0.661931
O O6 0.098627 0.184076 0.600587
O O7 0.126702 0.136566 0.702556
O O8 0.792618 0.544486 0.052523
O O9 0.697847 0.302154 0.000000
O O10 0.402606 0.187181 0.461287
O O11 0.629925 0.370076 0.500000
O O12 0.409866 0.191530 0.734651
#
# Coordination Sequence:
#
# PCOD9547420 Si02
#       6
#     8   8   8   2   8   8
#     4  12  28  48  74 108 142 185 238 295 353 419
#     4   9  21  39  62  90 124 168 225 279 336 412
#     4  11  27  47  73 106 145 186 232 293 353 418
#     4  12  28  44  80 108 136 188 248 280 348 442
#     4   9  19  37  58  86 123 166 215 275 334 401
#     4  11  25  43  64  95 137 176 221 283 356 420
#
# _framework density 21.701768000000001
#
# number of rings (size 3 to 8) (size 9 to 14) (size 15 to 20)
#    0.000    1.524    0.000    4.571   10.667    3.429 
#    0.000    5.714    0.000    0.000    0.000    0.000 
#    0.000    0.000    0.000    0.000    0.000    0.000 
#
# Total GULP energy -234626.108749 kJ/mol
# GULP energy per Si atom -5586.335923 kJ/mol
# Density = 2.165237 g / cm^3
# Si number density = 21.701768 Si / 1000 Ang^3
#
#
#
# Elastic Constant Matrix: (Units=GPa)
#
#
# Indices 1 2 3 4 5 6 
#
# 1 44.8670 24.5056 13.4229 0.0000 0.0000 0.0000
# 2 24.5056 44.8677 13.4230 0.0000 0.0000 0.0000
# 3 13.4229 13.4230 112.1733 0.0000 0.0000 0.0000
# 4 0.0000 0.0000 0.0000 53.4696 0.0000 0.0000
# 5 0.0000 0.0000 0.0000 0.0000 53.4695 0.0000
# 6 0.0000 0.0000 0.0000 0.0000 0.0000 47.9827
#
#
#
# Elastic Compliance Matrix: (Units=1/GPa)
#
#
# Indices 1 2 3 4 5 6 
#
# 1 0.032114 -0.016999 -0.001809 0.000000 0.000000 0.000000
# 2 -0.016999 0.032113 -0.001809 0.000000 0.000000 0.000000
# 3 -0.001809 -0.001809 0.009348 0.000000 0.000000 0.000000
# 4 0.000000 0.000000 0.000000 0.018702 0.000000 0.000000
# 5 0.000000 0.000000 0.000000 0.000000 0.018702 0.000000
# 6 0.000000 0.000000 0.000000 0.000000 0.000000 0.020841
#
#
# Mechanical properties :
#
#
# Convention : Reuss Voigt Hill
#
# Bulk Modulus (GPa) = 30.91910 33.84567 32.38238
# Shear Modulus (GPa) = 27.19873 41.02145 34.11009
#
# Velocity S-wave (km/s) = 3.54403 4.35240 3.96885
# Velocity P-wave (km/s) = 5.57002 6.39433 5.99636
#
# Compressibility (1/GPa) = 0.03234247
#
# Stress axis : x y z
#
# Youngs Moduli (GPa) = 31.13949 31.14001 106.97885
#
# Poissons Ratio (x) = 0.52933 0.19349
# Poissons Ratio (y) = 0.52933 0.19349
# Poissons Ratio (z) = 0.05632 0.05632
#
# Static dielectric constant tensor:
#      x y z
#    x 1.797810 0.000000 0.000000 
#    y 0.000000 1.797810 0.000000 
#    z 0.000000 0.000000 1.749780 
# 
# From -- ./inp_files/2989.got.cif
#   From: 2010.05.17/outbox.cif.g08.bks.cpg/sg90_2_cif.got.tgz:2989.got - 2010.06.03 19:17:45.
