data_PCOD9547012
_publ_section_title
;
Structure prediction by ZEFSAII (Michael W. Deem and Ramdas Pophale) SiO2 
 PCOD9547012
Probable space group: P 4 2 2
;
_chemical_formula_sum "Si O2"
_cell_formula_units_Z 44
_cell_length_a 9.017051
_cell_length_b 9.017051
_cell_length_c 29.007531
_cell_angle_alpha 90.000000
_cell_angle_beta 90.000000
_cell_angle_gamma 90.000000
_cell_volume 2358.521378
_symmetry_space_group_name_H-M "P 4 2 2"
_symmetry_group_IT_number 89
_symmetry_cell_setting 'tetragonal'
loop_
_space_group_symop_operation_xyz
x,y,z
-y,x,z
-x,-y,z
y,-x,z
x,-y,-z
-x,y,-z
y,x,-z
-y,-x,-z
loop_
_atom_site_type_symbol
_atom_site_label
_atom_site_fract_x
_atom_site_fract_y
_atom_site_fract_z
Si Si1 0.192935 0.147532 0.554621
Si Si2 0.748330 0.479785 0.051873
Si Si3 0.603465 0.274626 0.371883
Si Si4 0.079120 0.763371 0.699884
Si Si5 0.942574 0.757648 0.194491
Si Si6 0.500000 0.000000 0.124939
O O1 0.182013 0.182013 0.500000
O O2 0.333529 0.221198 0.578738
O O3 0.026749 0.198908 0.568455
O O4 0.652711 0.630122 0.056467
O O5 0.869556 0.453436 0.090541
O O6 0.810888 0.500000 0.000000
O O7 0.688994 0.431045 0.365920
O O8 0.649100 0.148105 0.335715
O O9 0.082847 0.707685 0.752688
O O10 0.911297 0.820060 0.693554
O O11 0.934722 0.627569 0.157818
O O12 0.106224 0.828877 0.188869
#
# Coordination Sequence:
#
# PCOD9547012 Si02
#       6
#     8   8   8   8   8   4
#     4   9  19  37  60  84 108 137 178 223 264 316
#     4   9  19  35  52  74 108 146 183 223 268 327
#     4  11  24  37  51  78 113 143 174 218 269 318
#     4   9  19  37  58  76  98 134 179 219 260 318
#     4   9  20  36  52  76 108 137 170 219 273 322
#     4  12  19  30  56  84 104 136 182 227 276 328
#
# _framework density 18.655754999999999
#
# number of rings (size 3 to 8) (size 9 to 14) (size 15 to 20)
#    0.000    2.364    0.000    4.636    0.000    8.000 
#    0.000    2.727    0.000    2.182    0.000    7.636 
#    0.000    0.000    0.000    0.000    0.000    0.000 
#
# Total GULP energy -245195.662218 kJ/mol
# GULP energy per Si atom -5572.628687 kJ/mol
# Density = 1.861329 g / cm^3
# Si number density = 18.655755 Si / 1000 Ang^3
#
#
#
# Elastic Constant Matrix: (Units=GPa)
#
#
# Indices 1 2 3 4 5 6 
#
# 1 35.6355 10.2127 25.7461 0.0000 0.0000 0.0000
# 2 10.2127 35.6355 25.7461 0.0000 0.0000 0.0000
# 3 25.7461 25.7461 77.9594 0.0000 0.0000 0.0000
# 4 0.0000 0.0000 0.0000 -238.9824 0.0000 0.0000
# 5 0.0000 0.0000 0.0000 0.0000 -238.9824 0.0000
# 6 0.0000 0.0000 0.0000 0.0000 0.0000 18.0344
#
#
#
# Elastic Compliance Matrix: (Units=1/GPa)
#
#
# Indices 1 2 3 4 5 6 
#
# 1 0.037003 -0.002332 -0.011450 0.000000 0.000000 0.000000
# 2 -0.002332 0.037003 -0.011450 0.000000 0.000000 0.000000
# 3 -0.011450 -0.011450 0.020390 0.000000 0.000000 0.000000
# 4 0.000000 0.000000 0.000000 -0.004184 0.000000 0.000000
# 5 0.000000 0.000000 0.000000 0.000000 -0.004184 0.000000
# 6 0.000000 0.000000 0.000000 0.000000 0.000000 0.055450
#
#
# Mechanical properties :
#
#
# Convention : Reuss Voigt Hill
#
# Bulk Modulus (GPa) = 22.76285 30.29335 26.52810
# Shear Modulus (GPa) = 24.20323 -86.15103 -30.97390
#
# Velocity S-wave (km/s) = 3.60580 -6.80291 -4.07908
# Velocity P-wave (km/s) = 5.43725 6.74039 2.81683
#
# Compressibility (1/GPa) = 0.04393124
#
# Stress axis : x y z
#
# Youngs Moduli (GPa) = 27.02504 27.02504 49.04394
#
# Poissons Ratio (x) = 0.06303 0.56155
# Poissons Ratio (y) = 0.06303 0.56155
# Poissons Ratio (z) = 0.30944 0.30944
#
# Static dielectric constant tensor:
#      x y z
#    x 1.638920 0.000000 0.000000 
#    y 0.000000 1.638920 0.000000 
#    z 0.000000 0.000000 1.657200 
# 
# From -- ./inp_files/2940.got.cif
#   From: 2010.05.17/outbox.cif.g08.bks.cpg/sg89_2_cif.got.tgz:2940.got - 2010.06.03 19:15:31.
