data_PCOD9547267
_publ_section_title
;
Structure prediction by ZEFSAII (Michael W. Deem and Ramdas Pophale) SiO2 
 PCOD9547267
Probable space group: P 4 21 2
;
_chemical_formula_sum "Si O2"
_cell_formula_units_Z 40
_cell_length_a 15.289576
_cell_length_b 15.289576
_cell_length_c 8.785715
_cell_angle_alpha 90.000000
_cell_angle_beta 90.000000
_cell_angle_gamma 90.000000
_cell_volume 2053.846561
_symmetry_space_group_name_H-M "P 4 21 2"
_symmetry_group_IT_number 90
_symmetry_cell_setting 'tetragonal'
loop_
_space_group_symop_operation_xyz
x,y,z
1/2-y,1/2+x,z
-x,-y,z
1/2+y,1/2-x,z
1/2+x,1/2-y,-z
1/2-x,1/2+y,-z
y,x,-z
-y,-x,-z
loop_
_atom_site_type_symbol
_atom_site_label
_atom_site_fract_x
_atom_site_fract_y
_atom_site_fract_z
Si Si1 0.819072 0.078646 0.188635
Si Si2 0.036878 0.357426 0.097139
Si Si3 0.145725 0.091714 0.332941
Si Si4 0.992872 0.170271 0.152844
Si Si5 0.327984 0.783328 0.125670
O O1 0.898101 0.146062 0.217185
O O2 0.732347 0.134717 0.165171
O O3 0.820012 0.006822 0.319073
O O4 0.834730 0.026618 0.028545
O O5 0.101462 0.440233 0.117353
O O6 0.029509 0.267036 0.191276
O O7 0.079995 0.318861 0.941371
O O8 0.116435 0.116435 0.500000
O O9 0.221743 0.153252 0.267737
O O10 0.063464 0.103659 0.218812
O O11 0.275752 0.724248 0.000000
#
# Coordination Sequence:
#
# PCOD9547267 Si02
#       5
#     8   8   8   8   8
#     4  11  22  40  67  96 120 164 223 276 324 374
#     4  11  20  34  62  98 125 154 204 276 336 375
#     4  12  26  42  59  92 138 176 206 261 336 418
#     4  11  21  38  65  92 121 161 220 274 319 369
#     4  12  19  41  67  94 124 165 223 277 322 380
#
# _framework density 19.475650999999999
#
# number of rings (size 3 to 8) (size 9 to 14) (size 15 to 20)
#    0.000    0.600    8.000    1.200    0.000    3.200 
#    3.600    0.000    0.000    0.000    0.000    0.000 
#    0.000    0.000    0.000    0.000    0.000    0.000 
#
# Total GULP energy -222865.491464 kJ/mol
# GULP energy per Si atom -5571.637287 kJ/mol
# Density = 1.943132 g / cm^3
# Si number density = 19.475651 Si / 1000 Ang^3
#
#
#
# Elastic Constant Matrix: (Units=GPa)
#
#
# Indices 1 2 3 4 5 6 
#
# 1 103.8970 46.0575 34.9905 0.0000 0.0000 0.0000
# 2 46.0575 103.8970 34.9902 0.0000 0.0000 0.0000
# 3 34.9905 34.9902 64.5393 0.0000 0.0000 0.0000
# 4 0.0000 0.0000 0.0000 15.1575 0.0000 0.0000
# 5 0.0000 0.0000 0.0000 0.0000 15.1575 0.0000
# 6 0.0000 0.0000 0.0000 0.0000 0.0000 44.8530
#
#
#
# Elastic Compliance Matrix: (Units=1/GPa)
#
#
# Indices 1 2 3 4 5 6 
#
# 1 0.013108 -0.004181 -0.004840 0.000000 0.000000 0.000000
# 2 -0.004181 0.013108 -0.004840 0.000000 0.000000 0.000000
# 3 -0.004840 -0.004840 0.020743 0.000000 0.000000 0.000000
# 4 0.000000 0.000000 0.000000 0.065974 0.000000 0.000000
# 5 0.000000 0.000000 0.000000 0.000000 0.065974 0.000000
# 6 0.000000 0.000000 0.000000 0.000000 0.000000 0.022295
#
#
# Mechanical properties :
#
#
# Convention : Reuss Voigt Hill
#
# Bulk Modulus (GPa) = 51.98260 56.04551 54.01406
# Shear Modulus (GPa) = 21.24614 25.45326 23.34970
#
# Velocity S-wave (km/s) = 3.30647 3.61907 3.46630
# Velocity P-wave (km/s) = 6.42853 6.80465 6.61926
#
# Compressibility (1/GPa) = 0.01923721
#
# Stress axis : x y z
#
# Youngs Moduli (GPa) = 76.28712 76.28755 48.21001
#
# Poissons Ratio (x) = 0.31895 0.23334
# Poissons Ratio (y) = 0.31895 0.23334
# Poissons Ratio (z) = 0.36924 0.36923
#
# Static dielectric constant tensor:
#      x y z
#    x 1.731680 0.000000 0.000000 
#    y 0.000000 1.731680 0.000000 
#    z 0.000000 0.000000 1.675460 
# 
# From -- ./inp_files/1260.got.cif
#   From: 2010.05.17/outbox.cif.g08.bks.cpg/sg90_1_cif.got.tgz:1260.got - 2010.06.03 19:17:45.
