data_PCOD9547224
_publ_section_title
;
Structure prediction by ZEFSAII (Michael W. Deem and Ramdas Pophale) SiO2 
 PCOD9547224
Probable space group: P 4 21 2
;
_chemical_formula_sum "Si O2"
_cell_formula_units_Z 60
_cell_length_a 11.019552
_cell_length_b 11.019552
_cell_length_c 22.654271
_cell_angle_alpha 90.000000
_cell_angle_beta 90.000000
_cell_angle_gamma 90.000000
_cell_volume 2750.920050
_symmetry_space_group_name_H-M "P 4 21 2"
_symmetry_group_IT_number 90
_symmetry_cell_setting 'tetragonal'
loop_
_space_group_symop_operation_xyz
x,y,z
1/2-y,1/2+x,z
-x,-y,z
1/2+y,1/2-x,z
1/2+x,1/2-y,-z
1/2-x,1/2+y,-z
y,x,-z
-y,-x,-z
loop_
_atom_site_type_symbol
_atom_site_label
_atom_site_fract_x
_atom_site_fract_y
_atom_site_fract_z
Si Si1 0.055804 0.307760 0.464714
Si Si2 0.367631 0.151848 0.212174
Si Si3 0.637818 0.276199 0.406409
Si Si4 0.141183 0.124416 0.156823
Si Si5 0.500000 0.500000 0.261885
Si Si6 0.292239 0.397085 0.668197
Si Si7 0.296497 0.011841 0.924361
Si Si8 0.013499 0.294463 0.941611
O O1 0.144930 0.421447 0.454286
O O2 0.079557 0.273378 0.532947
O O3 0.306932 0.248243 0.383004
O O4 0.510096 0.160297 0.199891
O O5 0.257088 0.208421 0.175504
O O6 0.365014 0.200609 0.278529
O O7 0.531692 0.277712 0.358560
O O8 0.696090 0.404906 0.423873
O O9 0.034331 0.199421 0.126079
O O10 0.189344 0.033968 0.105689
O O11 0.092665 0.065330 0.217128
O O12 0.404808 0.425030 0.301964
O O13 0.391101 0.123788 0.919682
O O14 0.247161 0.015453 0.991303
O O15 0.124403 0.391881 0.934669
#
# Coordination Sequence:
#
# PCOD9547224 Si02
#       8
#     8   8   8   8   4   8   8   8
#     4  10  22  42  68 104 133 165 216 262 326 395
#     4  11  22  39  65  95 119 162 226 277 325 372
#     4  11  23  41  71  99 128 175 206 273 326 381
#     4  12  23  39  62  92 129 166 207 280 329 395
#     4  12  30  42  53  95 134 170 210 264 334 382
#     4  12  24  45  65  91 134 172 222 268 321 389
#     4   9  21  40  62  87 121 171 218 261 325 404
#     4   9  19  38  64  94 122 156 211 273 338 394
#
# _framework density 21.810884999999999
#
# number of rings (size 3 to 8) (size 9 to 14) (size 15 to 20)
#    0.000    1.333    4.000    2.000    3.733    1.333 
#    0.000    2.667    0.000    0.000    0.000    0.000 
#    0.000    0.000    0.000    0.000    0.000    0.000 
#
# Total GULP energy -334824.112944 kJ/mol
# GULP energy per Si atom -5580.401882 kJ/mol
# Density = 2.176124 g / cm^3
# Si number density = 21.810885 Si / 1000 Ang^3
#
#
#
# Elastic Constant Matrix: (Units=GPa)
#
#
# Indices 1 2 3 4 5 6 
#
# 1 49.0114 7.1592 27.2279 0.0000 0.0000 0.0000
# 2 7.1592 49.0114 27.2279 0.0000 0.0000 0.0000
# 3 27.2279 27.2279 91.3243 0.0000 0.0000 0.0000
# 4 0.0000 0.0000 0.0000 27.0961 0.0000 0.0000
# 5 0.0000 0.0000 0.0000 0.0000 27.0961 0.0000
# 6 0.0000 0.0000 0.0000 0.0000 0.0000 19.1077
#
#
#
# Elastic Compliance Matrix: (Units=1/GPa)
#
#
# Indices 1 2 3 4 5 6 
#
# 1 0.024467 0.000574 -0.007466 0.000000 0.000000 0.000000
# 2 0.000574 0.024467 -0.007466 0.000000 0.000000 0.000000
# 3 -0.007466 -0.007466 0.015402 0.000000 0.000000 0.000000
# 4 0.000000 0.000000 0.000000 0.036906 0.000000 0.000000
# 5 0.000000 0.000000 0.000000 0.000000 0.036906 0.000000
# 6 0.000000 0.000000 0.000000 0.000000 0.000000 0.052335
#
#
# Mechanical properties :
#
#
# Convention : Reuss Voigt Hill
#
# Bulk Modulus (GPa) = 28.07400 34.73079 31.40240
# Shear Modulus (GPa) = 21.63830 23.17546 22.40688
#
# Velocity S-wave (km/s) = 3.15316 3.26324 3.20867
# Velocity P-wave (km/s) = 5.11430 5.49149 5.30625
#
# Compressibility (1/GPa) = 0.03562015
#
# Stress axis : x y z
#
# Youngs Moduli (GPa) = 40.87109 40.87109 64.92770
#
# Poissons Ratio (x) = -0.02344 0.48474
# Poissons Ratio (y) = -0.02344 0.48474
# Poissons Ratio (z) = 0.30513 0.30513
#
# Static dielectric constant tensor:
#      x y z
#    x 1.827030 0.000000 0.000000 
#    y 0.000000 1.827030 0.000000 
#    z 0.000000 0.000000 1.801470 
# 
# From -- ./inp_files/2868.got.cif
#   From: 2010.05.17/outbox.cif.g08.bks.cpg/sg90_2_cif.got.tgz:2868.got - 2010.06.03 19:17:45.
