data_PCOD9547651
_publ_section_title
;
Structure prediction by ZEFSAII (Michael W. Deem and Ramdas Pophale) SiO2 
 PCOD9547651
Probable space group: P 41 2 2
;
_chemical_formula_sum "Si O2"
_cell_formula_units_Z 36
_cell_length_a 8.323460
_cell_length_b 8.323460
_cell_length_c 21.380649
_cell_angle_alpha 90.000000
_cell_angle_beta 90.000000
_cell_angle_gamma 90.000000
_cell_volume 1481.251071
_symmetry_space_group_name_H-M "P 41 2 2"
_symmetry_group_IT_number 91
_symmetry_cell_setting 'tetragonal'
loop_
_space_group_symop_operation_xyz
x,y,z
-y,x,1/4+z
-x,-y,1/2+z
y,-x,3/4+z
x,-y,1/2-z
-x,y,-z
y,x,3/4-z
-y,-x,1/4-z
loop_
_atom_site_type_symbol
_atom_site_label
_atom_site_fract_x
_atom_site_fract_y
_atom_site_fract_z
Si Si1 0.883845 0.350097 0.297559
Si Si2 0.823843 0.144109 0.481544
Si Si3 0.632873 0.156880 0.224073
Si Si4 0.595449 0.361073 0.841468
Si Si5 0.885964 0.114037 0.125000
O O1 0.886470 0.500000 0.250000
O O2 0.768979 0.209259 0.271986
O O3 0.789924 0.403904 0.359628
O O4 0.056811 0.263172 0.290734
O O5 0.679228 0.241852 0.446730
O O6 0.000000 0.215547 0.500000
O O7 0.881836 0.018852 0.428198
O O8 0.532572 0.314718 0.211404
O O9 0.717465 0.108437 0.160210
O O10 0.547946 0.000000 0.250000
O O11 0.523047 0.523047 0.875000
#
# Coordination Sequence:
#
# PCOD9547651 Si02
#       5
#     8   8   8   8   4
#     4  11  22  42  68  96 135 177 231 290 339 409
#     4  11  23  40  67 106 137 172 227 293 344 400
#     4  11  21  39  69  98 124 179 241 278 324 409
#     4  12  23  43  68  97 139 190 229 271 353 428
#     4  10  18  40  68 102 128 174 224 286 340 392
#
# _framework density 24.303778000000001
#
# number of rings (size 3 to 8) (size 9 to 14) (size 15 to 20)
#    0.000    0.889    3.333    7.333    0.000    0.000 
#    4.000    0.000    0.000    0.000    0.000    0.000 
#    0.000    0.000    0.000    0.000    0.000    0.000 
#
# Total GULP energy -200405.216560 kJ/mol
# GULP energy per Si atom -5566.811571 kJ/mol
# Density = 2.424846 g / cm^3
# Si number density = 24.303778 Si / 1000 Ang^3
#
#
#
# Elastic Constant Matrix: (Units=GPa)
#
#
# Indices 1 2 3 4 5 6 
#
# 1 109.2247 21.1767 21.8269 0.0000 0.0000 0.0000
# 2 21.1767 109.2253 21.8269 0.0000 0.0000 0.0000
# 3 21.8269 21.8269 55.9646 0.0000 0.0000 0.0000
# 4 0.0000 0.0000 0.0000 3.2344 0.0000 0.0000
# 5 0.0000 0.0000 0.0000 0.0000 3.2345 0.0000
# 6 0.0000 0.0000 0.0000 0.0000 0.0000 0.2924
#
#
#
# Elastic Compliance Matrix: (Units=1/GPa)
#
#
# Indices 1 2 3 4 5 6 
#
# 1 0.010089 -0.001269 -0.003440 0.000000 0.000000 0.000000
# 2 -0.001269 0.010089 -0.003440 0.000000 0.000000 0.000000
# 3 -0.003440 -0.003440 0.020552 0.000000 0.000000 0.000000
# 4 0.000000 0.000000 0.000000 0.309174 0.000000 0.000000
# 5 0.000000 0.000000 0.000000 0.000000 0.309168 0.000000
# 6 0.000000 0.000000 0.000000 0.000000 0.000000 3.419880
#
#
# Mechanical properties :
#
#
# Convention : Reuss Voigt Hill
#
# Bulk Modulus (GPa) = 40.92965 44.89728 42.91347
# Shear Modulus (GPa) = 1.21850 15.32455 8.27152
#
# Velocity S-wave (km/s) = 0.70884 2.51378 1.84683
# Velocity P-wave (km/s) = 4.18896 5.19027 4.71626
#
# Compressibility (1/GPa) = 0.02443217
#
# Stress axis : x y z
#
# Youngs Moduli (GPa) = 99.11957 99.12017 48.65773
#
# Poissons Ratio (x) = 0.12574 0.16738
# Poissons Ratio (y) = 0.12574 0.16738
# Poissons Ratio (z) = 0.34097 0.34097
#
# Static dielectric constant tensor:
#      x y z
#    x 1.984420 0.000000 0.000000 
#    y 0.000000 1.984420 0.000000 
#    z 0.000000 0.000000 1.859010 
# 
# From -- ./inp_files/6125.got.cif
#   From: 2010.05.17/outbox.cif.g08.bks.cpg/sg91_4_cif.got.tgz:6125.got - 2010.06.03 19:20:03.
