data_PCOD9547636
_publ_section_title
;
Structure prediction by ZEFSAII (Michael W. Deem and Ramdas Pophale) SiO2 
 PCOD9547636
Probable space group: P 41 2 2
;
_chemical_formula_sum "Si O2"
_cell_formula_units_Z 40
_cell_length_a 8.840613
_cell_length_b 8.840613
_cell_length_c 27.399241
_cell_angle_alpha 90.000000
_cell_angle_beta 90.000000
_cell_angle_gamma 90.000000
_cell_volume 2141.427086
_symmetry_space_group_name_H-M "P 41 2 2"
_symmetry_group_IT_number 91
_symmetry_cell_setting 'tetragonal'
loop_
_space_group_symop_operation_xyz
x,y,z
-y,x,1/4+z
-x,-y,1/2+z
y,-x,3/4+z
x,-y,1/2-z
-x,y,-z
y,x,3/4-z
-y,-x,1/4-z
loop_
_atom_site_type_symbol
_atom_site_label
_atom_site_fract_x
_atom_site_fract_y
_atom_site_fract_z
Si Si1 0.500000 0.683203 0.000000
Si Si2 0.893420 0.666898 0.903575
Si Si3 0.038316 0.693877 0.275617
Si Si4 0.464706 0.374763 0.668452
Si Si5 0.886567 0.430938 0.322814
Si Si6 0.000000 0.832828 0.000000
O O1 0.385526 0.796628 0.972496
O O2 0.585989 0.575631 0.962917
O O3 0.788826 0.788826 0.875000
O O4 0.794975 0.513210 0.904427
O O5 0.042817 0.633456 0.872395
O O6 0.927796 0.730754 0.957215
O O7 0.932176 0.606980 0.314148
O O8 0.969822 0.651763 0.222481
O O9 0.065467 0.871667 0.275805
O O10 0.514533 0.485468 0.625000
O O11 0.290622 0.400296 0.680204
#
# Coordination Sequence:
#
# PCOD9547636 Si02
#       6
#     4   8   8   8   8   4
#     4  10  18  38  60  82 116 158 212 246 284 364
#     4  11  22  41  61  92 121 170 213 258 314 385
#     4  10  20  40  62  90 121 169 199 252 318 379
#     4  11  22  38  62  89 119 161 207 260 303 364
#     4  10  22  39  61  89 128 160 209 260 321 370
#     4  12  22  38  68  94 124 170 220 252 312 408
#
# _framework density 18.679131999999999
#
# number of rings (size 3 to 8) (size 9 to 14) (size 15 to 20)
#    0.000    1.600    4.000    4.800    5.600    0.000 
#    0.000    4.000    0.000    0.000    0.000    0.000 
#    0.000    0.000    0.000    0.000    0.000    0.000 
#
# Total GULP energy -223224.277307 kJ/mol
# GULP energy per Si atom -5580.606933 kJ/mol
# Density = 1.863662 g / cm^3
# Si number density = 18.679132 Si / 1000 Ang^3
#
#
#
# Elastic Constant Matrix: (Units=GPa)
#
#
# Indices 1 2 3 4 5 6 
#
# 1 123.2949 38.5568 18.1221 0.0000 0.0000 0.0000
# 2 38.5568 123.2945 18.1220 0.0000 0.0000 0.0000
# 3 18.1221 18.1220 71.7294 0.0000 0.0000 0.0000
# 4 0.0000 0.0000 0.0000 26.4926 0.0000 0.0000
# 5 0.0000 0.0000 0.0000 0.0000 26.4926 0.0000
# 6 0.0000 0.0000 0.0000 0.0000 0.0000 12.9006
#
#
#
# Elastic Compliance Matrix: (Units=1/GPa)
#
#
# Indices 1 2 3 4 5 6 
#
# 1 0.009175 -0.002626 -0.001655 0.000000 0.000000 0.000000
# 2 -0.002626 0.009175 -0.001655 0.000000 0.000000 0.000000
# 3 -0.001655 -0.001655 0.014777 0.000000 0.000000 0.000000
# 4 0.000000 0.000000 0.000000 0.037746 0.000000 0.000000
# 5 0.000000 0.000000 0.000000 0.000000 0.037746 0.000000
# 6 0.000000 0.000000 0.000000 0.000000 0.000000 0.077516
#
#
# Mechanical properties :
#
#
# Convention : Reuss Voigt Hill
#
# Bulk Modulus (GPa) = 47.04320 51.99119 49.51720
# Shear Modulus (GPa) = 24.37931 29.41168 26.89550
#
# Velocity S-wave (km/s) = 3.61662 3.97240 3.79868
# Velocity P-wave (km/s) = 6.53296 6.99530 6.76808
#
# Compressibility (1/GPa) = 0.02125706
#
# Stress axis : x y z
#
# Youngs Moduli (GPa) = 108.99131 108.99093 67.67124
#
# Poissons Ratio (x) = 0.28621 0.11197
# Poissons Ratio (y) = 0.28622 0.11197
# Poissons Ratio (z) = 0.18033 0.18033
#
# Static dielectric constant tensor:
#      x y z
#    x 1.658990 0.000000 0.000000 
#    y 0.000000 1.658990 0.000000 
#    z 0.000000 0.000000 1.637330 
# 
# From -- ./inp_files/6838.got.cif
#   From: 2010.05.17/outbox.cif.g08.bks.cpg/sg91_4_cif.got.tgz:6838.got - 2010.06.03 19:20:03.
