data_PCOD9547875
_publ_section_title
;
Structure prediction by ZEFSAII (Michael W. Deem and Ramdas Pophale) SiO2 
 PCOD9547875
Probable space group: P 41 2 2
;
_chemical_formula_sum "Si O2"
_cell_formula_units_Z 44
_cell_length_a 9.905725
_cell_length_b 9.905725
_cell_length_c 20.793797
_cell_angle_alpha 90.000000
_cell_angle_beta 90.000000
_cell_angle_gamma 90.000000
_cell_volume 2040.357806
_symmetry_space_group_name_H-M "P 41 2 2"
_symmetry_group_IT_number 91
_symmetry_cell_setting 'tetragonal'
loop_
_space_group_symop_operation_xyz
x,y,z
-y,x,1/4+z
-x,-y,1/2+z
y,-x,3/4+z
x,-y,1/2-z
-x,y,-z
y,x,3/4-z
-y,-x,1/4-z
loop_
_atom_site_type_symbol
_atom_site_label
_atom_site_fract_x
_atom_site_fract_y
_atom_site_fract_z
Si Si1 0.856563 0.143438 0.625000
Si Si2 0.860183 0.281095 0.361779
Si Si3 0.158171 0.837150 0.258916
Si Si4 0.656295 0.319910 0.011038
Si Si5 0.916828 0.470872 0.061859
Si Si6 0.927422 0.260456 0.157030
O O1 0.787211 0.198984 0.689127
O O2 0.014190 0.175884 0.640227
O O3 0.796473 0.250719 0.431647
O O4 0.756585 0.291245 0.303565
O O5 0.923144 0.425260 0.379080
O O6 0.020144 0.769261 0.282187
O O7 0.140376 0.000000 0.250000
O O8 0.768076 0.427006 0.036090
O O9 0.661752 0.203114 0.065552
O O10 0.500000 0.363166 0.000000
O O11 0.984083 0.340072 0.095567
O O12 0.000000 0.519211 0.000000
O O13 0.877115 0.122886 0.125000
#
# Coordination Sequence:
#
# PCOD9547875 Si02
#       6
#     4   8   8   8   8   8
#     4  10  20  36  56  88 126 172 204 258 330 410
#     4  11  22  39  63  92 133 170 216 270 335 399
#     4  10  21  33  55  88 125 163 203 257 328 400
#     4  11  22  41  66  94 127 174 217 271 331 399
#     4  11  23  40  64  97 133 166 223 283 326 385
#     4  10  21  34  58  90 122 157 209 264 324 380
#
# _framework density 21.564843
#
# number of rings (size 3 to 8) (size 9 to 14) (size 15 to 20)
#    0.000    1.455    3.636    2.727    5.091    2.909 
#    0.000    0.000    0.000   14.182    0.000    0.000 
#    0.000    0.000    0.000    0.000    0.000    0.000 
#
# Total GULP energy -244946.883168 kJ/mol
# GULP energy per Si atom -5566.974617 kJ/mol
# Density = 2.151576 g / cm^3
# Si number density = 21.564843 Si / 1000 Ang^3
#
#
#
# Elastic Constant Matrix: (Units=GPa)
#
#
# Indices 1 2 3 4 5 6 
#
# 1 56.6696 36.8769 9.1696 0.0000 0.0000 0.0000
# 2 36.8769 56.6690 9.1702 0.0000 0.0000 0.0000
# 3 9.1696 9.1702 133.0272 0.0000 0.0000 0.0000
# 4 0.0000 0.0000 0.0000 23.1701 0.0000 0.0000
# 5 0.0000 0.0000 0.0000 0.0000 23.1694 0.0000
# 6 0.0000 0.0000 0.0000 0.0000 0.0000 12.5268
#
#
#
# Elastic Compliance Matrix: (Units=1/GPa)
#
#
# Indices 1 2 3 4 5 6 
#
# 1 0.030680 -0.019844 -0.000747 0.000000 0.000000 0.000000
# 2 -0.019844 0.030681 -0.000747 0.000000 0.000000 0.000000
# 3 -0.000747 -0.000747 0.007620 0.000000 0.000000 0.000000
# 4 0.000000 0.000000 0.000000 0.043159 0.000000 0.000000
# 5 0.000000 0.000000 0.000000 0.000000 0.043160 0.000000
# 6 0.000000 0.000000 0.000000 0.000000 0.000000 0.079829
#
#
# Mechanical properties :
#
#
# Convention : Reuss Voigt Hill
#
# Bulk Modulus (GPa) = 38.01555 39.64437 38.82996
# Shear Modulus (GPa) = 17.44752 24.51652 20.98202
#
# Velocity S-wave (km/s) = 2.84751 3.37542 3.12264
# Velocity P-wave (km/s) = 5.33646 5.79784 5.57193
#
# Compressibility (1/GPa) = 0.02630503
#
# Stress axis : x y z
#
# Youngs Moduli (GPa) = 32.59438 32.59398 131.22945
#
# Poissons Ratio (x) = 0.64679 0.09801
# Poissons Ratio (y) = 0.64680 0.09804
# Poissons Ratio (z) = 0.02434 0.02435
#
# Static dielectric constant tensor:
#      x y z
#    x 1.934550 0.000000 0.000000 
#    y 0.000000 1.934550 0.000000 
#    z 0.000000 0.000000 1.887650 
# 
# From -- ./inp_files/21422.got.cif
#   From: 2010.05.17/outbox.cif.g08.bks.cpg/sg91_11_cif.got.tgz:21422.got - 2010.06.03 19:20:03.
