data_PCOD9547522
_publ_section_title
;
Structure prediction by ZEFSAII (Michael W. Deem and Ramdas Pophale) SiO2 
 PCOD9547522
Probable space group: P 41 2 2
;
_chemical_formula_sum "Si O2"
_cell_formula_units_Z 48
_cell_length_a 14.377501
_cell_length_b 14.377501
_cell_length_c 12.547809
_cell_angle_alpha 90.000000
_cell_angle_beta 90.000000
_cell_angle_gamma 90.000000
_cell_volume 2593.789407
_symmetry_space_group_name_H-M "P 41 2 2"
_symmetry_group_IT_number 91
_symmetry_cell_setting 'tetragonal'
loop_
_space_group_symop_operation_xyz
x,y,z
-y,x,1/4+z
-x,-y,1/2+z
y,-x,3/4+z
x,-y,1/2-z
-x,y,-z
y,x,3/4-z
-y,-x,1/4-z
loop_
_atom_site_type_symbol
_atom_site_label
_atom_site_fract_x
_atom_site_fract_y
_atom_site_fract_z
Si Si1 0.703470 0.812174 0.586685
Si Si2 0.389474 0.371074 0.998776
Si Si3 0.292146 0.875338 0.864622
Si Si4 0.087733 0.668441 0.628658
Si Si5 0.536776 0.895585 0.708092
Si Si6 0.246535 0.524544 0.371051
O O1 0.645827 0.717025 0.566533
O O2 0.803230 0.790921 0.640306
O O3 0.715599 0.852863 0.469411
O O4 0.631875 0.879405 0.645865
O O5 0.335956 0.455913 0.055178
O O6 0.500000 0.380146 0.000000
O O7 0.360723 0.360723 0.875000
O O8 0.290986 0.889289 0.737037
O O9 0.382863 0.815484 0.890569
O O10 0.310531 0.979536 0.905435
O O11 0.113405 0.557914 0.613843
O O12 0.537376 0.822581 0.806362
O O13 0.529536 0.000000 0.750000
O O14 0.271656 0.500000 0.250000
#
# Coordination Sequence:
#
# PCOD9547522 Si02
#       6
#     8   8   8   8   8   8
#     4  11  21  33  59  88 115 152 194 254 309 348
#     4  11  22  39  57  82 122 161 210 254 292 365
#     4   9  19  34  52  91 118 143 193 247 300 361
#     4  10  17  34  60  83 118 152 194 241 296 368
#     4  11  21  35  57  90 117 152 202 249 305 368
#     4  10  21  37  57  82 122 157 203 256 310 360
#
# _framework density 18.505742999999999
#
# number of rings (size 3 to 8) (size 9 to 14) (size 15 to 20)
#    0.000    1.667    3.333    6.000    2.333    0.667 
#    0.000    6.667    0.000    0.000   13.000    0.000 
#    0.000    0.000    0.000    0.000    0.000    0.000 
#
# Total GULP energy -267418.496692 kJ/mol
# GULP energy per Si atom -5571.218681 kJ/mol
# Density = 1.846362 g / cm^3
# Si number density = 18.505743 Si / 1000 Ang^3
#
#
#
# Elastic Constant Matrix: (Units=GPa)
#
#
# Indices 1 2 3 4 5 6 
#
# 1 45.2960 32.3173 1.9152 0.0000 0.0000 0.0000
# 2 32.3173 45.2960 1.9152 0.0000 0.0000 0.0000
# 3 1.9152 1.9152 47.8131 0.0000 0.0000 0.0000
# 4 0.0000 0.0000 0.0000 17.0424 0.0000 0.0000
# 5 0.0000 0.0000 0.0000 0.0000 17.0424 0.0000
# 6 0.0000 0.0000 0.0000 0.0000 0.0000 -5.0360
#
#
#
# Elastic Compliance Matrix: (Units=1/GPa)
#
#
# Indices 1 2 3 4 5 6 
#
# 1 0.044980 -0.032070 -0.000517 0.000000 0.000000 0.000000
# 2 -0.032070 0.044980 -0.000517 0.000000 0.000000 0.000000
# 3 -0.000517 -0.000517 0.020956 0.000000 0.000000 0.000000
# 4 0.000000 0.000000 0.000000 0.058677 0.000000 0.000000
# 5 0.000000 0.000000 0.000000 0.000000 0.058677 0.000000
# 6 0.000000 0.000000 0.000000 0.000000 0.000000 -0.198569
#
#
# Mechanical properties :
#
#
# Convention : Reuss Voigt Hill
#
# Bulk Modulus (GPa) = 22.36761 23.41118 22.88939
# Shear Modulus (GPa) = 45.12145 12.62692 28.87418
#
# Velocity S-wave (km/s) = 4.94321 2.61497 3.95433
# Velocity P-wave (km/s) = 6.68532 4.66858 5.76581
#
# Compressibility (1/GPa) = 0.04470751
#
# Stress axis : x y z
#
# Youngs Moduli (GPa) = 22.23220 22.23220 47.71859
#
# Poissons Ratio (x) = 0.71298 0.02468
# Poissons Ratio (y) = 0.71298 0.02468
# Poissons Ratio (z) = 0.01150 0.01150
#
# Static dielectric constant tensor:
#      x y z
#    x 1.682850 0.000000 0.000000 
#    y 0.000000 1.682850 0.000000 
#    z 0.000000 0.000000 1.688760 
# 
# From -- ./inp_files/20242.got.cif
#   From: 2010.05.17/outbox.cif.g08.bks.cpg/sg91_11_cif.got.tgz:20242.got - 2010.06.03 19:20:03.
