data_PCOD9547941
_publ_section_title
;
Structure prediction by ZEFSAII (Michael W. Deem and Ramdas Pophale) SiO2 
 PCOD9547941
Probable space group: P 41 2 2
;
_chemical_formula_sum "Si O2"
_cell_formula_units_Z 44
_cell_length_a 8.607768
_cell_length_b 8.607768
_cell_length_c 29.203198
_cell_angle_alpha 90.000000
_cell_angle_beta 90.000000
_cell_angle_gamma 90.000000
_cell_volume 2163.772114
_symmetry_space_group_name_H-M "P 41 2 2"
_symmetry_group_IT_number 91
_symmetry_cell_setting 'tetragonal'
loop_
_space_group_symop_operation_xyz
x,y,z
-y,x,1/4+z
-x,-y,1/2+z
y,-x,3/4+z
x,-y,1/2-z
-x,y,-z
y,x,3/4-z
-y,-x,1/4-z
loop_
_atom_site_type_symbol
_atom_site_label
_atom_site_fract_x
_atom_site_fract_y
_atom_site_fract_z
Si Si1 0.484303 0.414071 0.792513
Si Si2 0.064461 0.341642 0.095353
Si Si3 0.230475 0.426910 0.338762
Si Si4 0.707977 0.707977 0.375000
Si Si5 0.930839 0.390133 0.455420
Si Si6 0.029931 0.215453 0.641924
O O1 0.408295 0.500000 0.750000
O O2 0.635001 0.518678 0.805063
O O3 0.359467 0.392325 0.832885
O O4 0.551703 0.242147 0.784505
O O5 0.889585 0.315815 0.114167
O O6 0.042642 0.461887 0.053967
O O7 0.164976 0.424275 0.134676
O O8 0.151981 0.183369 0.084115
O O9 0.317213 0.317213 0.375000
O O10 0.078773 0.325019 0.326515
O O11 0.931865 0.304769 0.406006
O O12 0.000000 0.304278 0.500000
O O13 0.931169 0.068832 0.625000
#
# Coordination Sequence:
#
# PCOD9547941 Si02
#       6
#     8   8   8   4   8   8
#     4  11  23  38  64  91 125 165 211 263 310 375
#     4  10  20  40  65  86 122 166 211 247 325 369
#     4  10  21  36  61  91 118 160 204 254 303 373
#     4  10  22  42  64  90 124 164 210 262 310 378
#     4  10  23  39  60  92 128 162 208 264 314 379
#     4  10  20  37  66  88 118 167 206 253 316 387
#
# _framework density 20.334858000000001
#
# number of rings (size 3 to 8) (size 9 to 14) (size 15 to 20)
#    0.000    1.818    3.636    0.000    7.636    0.000 
#    0.000    1.818    4.000    0.000    0.000    0.000 
#    0.000    0.000    0.000    0.000    0.000    0.000 
#
# Total GULP energy -245427.900592 kJ/mol
# GULP energy per Si atom -5577.906832 kJ/mol
# Density = 2.028857 g / cm^3
# Si number density = 20.334858 Si / 1000 Ang^3
#
#
#
# Elastic Constant Matrix: (Units=GPa)
#
#
# Indices 1 2 3 4 5 6 
#
# 1 81.8544 23.8602 14.9286 0.0000 0.0000 0.0000
# 2 23.8602 81.8549 14.9285 0.0000 0.0000 0.0000
# 3 14.9286 14.9285 66.2922 0.0000 0.0000 0.0000
# 4 0.0000 0.0000 0.0000 16.0415 0.0000 0.0000
# 5 0.0000 0.0000 0.0000 0.0000 16.0417 0.0000
# 6 0.0000 0.0000 0.0000 0.0000 0.0000 40.7483
#
#
#
# Elastic Compliance Matrix: (Units=1/GPa)
#
#
# Indices 1 2 3 4 5 6 
#
# 1 0.013673 -0.003571 -0.002275 0.000000 0.000000 0.000000
# 2 -0.003571 0.013672 -0.002275 0.000000 0.000000 0.000000
# 3 -0.002275 -0.002275 0.016109 0.000000 0.000000 0.000000
# 4 0.000000 0.000000 0.000000 0.062338 0.000000 0.000000
# 5 0.000000 0.000000 0.000000 0.000000 0.062338 0.000000
# 6 0.000000 0.000000 0.000000 0.000000 0.000000 0.024541
#
#
# Mechanical properties :
#
#
# Convention : Reuss Voigt Hill
#
# Bulk Modulus (GPa) = 36.74636 37.49292 37.11964
# Shear Modulus (GPa) = 22.93757 26.31858 24.62807
#
# Velocity S-wave (km/s) = 3.36220 3.60148 3.48390
# Velocity P-wave (km/s) = 5.76042 5.98097 5.87173
#
# Compressibility (1/GPa) = 0.02721358
#
# Stress axis : x y z
#
# Youngs Moduli (GPa) = 73.13945 73.13995 62.07595
#
# Poissons Ratio (x) = 0.26115 0.14122
# Poissons Ratio (y) = 0.26115 0.14121
# Poissons Ratio (z) = 0.16638 0.16638
#
# Static dielectric constant tensor:
#      x y z
#    x 1.839230 0.000000 0.000000 
#    y 0.000000 1.839240 0.000000 
#    z 0.000000 0.000000 1.718160 
# 
# From -- ./inp_files/7867.got.cif
#   From: 2010.05.17/outbox.cif.g08.bks.cpg/sg91_4_cif.got.tgz:7867.got - 2010.06.03 19:20:03.
