data_PCOD9547381
_publ_section_title
;
Structure prediction by ZEFSAII (Michael W. Deem and Ramdas Pophale) SiO2 
 PCOD9547381
Probable space group: P 4 21 2
;
_chemical_formula_sum "Si O2"
_cell_formula_units_Z 42
_cell_length_a 8.355729
_cell_length_b 8.355729
_cell_length_c 25.670998
_cell_angle_alpha 90.000000
_cell_angle_beta 90.000000
_cell_angle_gamma 90.000000
_cell_volume 1792.303055
_symmetry_space_group_name_H-M "P 4 21 2"
_symmetry_group_IT_number 90
_symmetry_cell_setting 'tetragonal'
loop_
_space_group_symop_operation_xyz
x,y,z
1/2-y,1/2+x,z
-x,-y,z
1/2+y,1/2-x,z
1/2+x,1/2-y,-z
1/2-x,1/2+y,-z
y,x,-z
-y,-x,-z
loop_
_atom_site_type_symbol
_atom_site_label
_atom_site_fract_x
_atom_site_fract_y
_atom_site_fract_z
Si Si1 0.393382 0.659086 0.942221
Si Si2 0.383442 0.766564 0.164479
Si Si3 0.589028 0.256136 0.549700
Si Si4 0.249833 0.091796 0.743085
Si Si5 0.413388 0.744487 0.352081
Si Si6 0.500000 0.000000 0.926873
O O1 0.500000 0.500000 0.942655
O O2 0.266479 0.635211 0.896378
O O3 0.509676 0.805209 0.928819
O O4 0.321219 0.678782 0.000000
O O5 0.568860 0.793608 0.177926
O O6 0.311343 0.624119 0.198674
O O7 0.406254 0.196306 0.548906
O O8 0.639562 0.360439 0.500000
O O9 0.631942 0.355954 0.601070
O O10 0.410250 0.197055 0.735118
O O11 0.122028 0.155586 0.701929
O O12 0.594946 0.804771 0.355464
#
# Coordination Sequence:
#
# PCOD9547381 Si02
#       6
#     8   8   8   8   8   2
#     4  11  28  48  74 111 144 186 239 293 357 429
#     4  11  26  45  70 101 139 181 229 289 353 420
#     4  11  24  41  64  97 135 175 226 281 340 409
#     4  11  26  44  67  98 134 178 232 288 348 421
#     4  11  24  43  67  96 133 175 226 283 347 416
#     4  12  28  44  80 100 144 188 236 284 356 426
#
# _framework density 23.433537000000001
#
# number of rings (size 3 to 8) (size 9 to 14) (size 15 to 20)
#    0.000    0.952    0.000    4.571   10.667   11.048 
#    0.000    0.000    0.000    0.000    0.000    0.000 
#    0.000    0.000    0.000    0.000    0.000    0.000 
#
# Total GULP energy -235033.388332 kJ/mol
# GULP energy per Si atom -5596.033056 kJ/mol
# Density = 2.338020 g / cm^3
# Si number density = 23.433537 Si / 1000 Ang^3
#
#
#
# Elastic Constant Matrix: (Units=GPa)
#
#
# Indices 1 2 3 4 5 6 
#
# 1 89.2689 23.7105 11.4465 0.0000 0.0000 0.0000
# 2 23.7105 89.2683 11.4463 0.0000 0.0000 0.0000
# 3 11.4465 11.4463 104.5510 0.0000 0.0000 0.0000
# 4 0.0000 0.0000 0.0000 87.5776 0.0000 0.0000
# 5 0.0000 0.0000 0.0000 0.0000 87.5777 0.0000
# 6 0.0000 0.0000 0.0000 0.0000 0.0000 72.1487
#
#
#
# Elastic Compliance Matrix: (Units=1/GPa)
#
#
# Indices 1 2 3 4 5 6 
#
# 1 0.012153 -0.003101 -0.000991 0.000000 0.000000 0.000000
# 2 -0.003101 0.012153 -0.000991 0.000000 0.000000 0.000000
# 3 -0.000991 -0.000991 0.009782 0.000000 0.000000 0.000000
# 4 0.000000 0.000000 0.000000 0.011418 0.000000 0.000000
# 5 0.000000 0.000000 0.000000 0.000000 0.011418 0.000000
# 6 0.000000 0.000000 0.000000 0.000000 0.000000 0.013860
#
#
# Mechanical properties :
#
#
# Convention : Reuss Voigt Hill
#
# Bulk Modulus (GPa) = 41.80319 41.81051 41.80685
# Shear Modulus (GPa) = 56.22773 65.22647 60.72710
#
# Velocity S-wave (km/s) = 4.90374 5.28158 5.09616
# Velocity P-wave (km/s) = 7.06682 7.42121 7.24618
#
# Compressibility (1/GPa) = 0.02392162
#
# Stress axis : x y z
#
# Youngs Moduli (GPa) = 82.28570 82.28513 102.23162
#
# Poissons Ratio (x) = 0.25515 0.10132
# Poissons Ratio (y) = 0.25515 0.10131
# Poissons Ratio (z) = 0.08155 0.08155
#
# Static dielectric constant tensor:
#      x y z
#    x 1.783080 0.000000 0.000000 
#    y 0.000000 1.783070 0.000000 
#    z 0.000000 0.000000 1.874850 
# 
# From -- ./inp_files/2968.got.cif
#   From: 2010.05.17/outbox.cif.g08.bks.cpg/sg90_2_cif.got.tgz:2968.got - 2010.06.03 19:17:45.
