data_PCOD9547391
_publ_section_title
;
Structure prediction by ZEFSAII (Michael W. Deem and Ramdas Pophale) SiO2 
 PCOD9547391
Probable space group: P 4 21 2
;
_chemical_formula_sum "Si O2"
_cell_formula_units_Z 28
_cell_length_a 8.029559
_cell_length_b 8.029559
_cell_length_c 19.725350
_cell_angle_alpha 90.000000
_cell_angle_beta 90.000000
_cell_angle_gamma 90.000000
_cell_volume 1271.768621
_symmetry_space_group_name_H-M "P 4 21 2"
_symmetry_group_IT_number 90
_symmetry_cell_setting 'tetragonal'
loop_
_space_group_symop_operation_xyz
x,y,z
1/2-y,1/2+x,z
-x,-y,z
1/2+y,1/2-x,z
1/2+x,1/2-y,-z
1/2-x,1/2+y,-z
y,x,-z
-y,-x,-z
loop_
_atom_site_type_symbol
_atom_site_label
_atom_site_fract_x
_atom_site_fract_y
_atom_site_fract_z
Si Si1 0.764607 0.093429 0.568192
Si Si2 0.589971 0.734703 0.295965
Si Si3 0.908623 0.765339 0.931781
Si Si4 0.000000 0.000000 0.817596
O O1 0.596654 0.204737 0.568962
O O2 0.862377 0.137624 0.500000
O O3 0.868461 0.141987 0.634411
O O4 0.399432 0.797340 0.293237
O O5 0.610064 0.614120 0.232057
O O6 0.796667 0.599742 0.930079
O O7 0.891325 0.883750 0.866971
O O8 0.862666 0.862666 0.000000
#
# Coordination Sequence:
#
# PCOD9547391 Si02
#       4
#     8   8   8   4
#     4  11  24  42  65  95 131 174 227 286 348 414
#     4  11  24  42  65  95 132 178 229 282 346 415
#     4  11  24  44  71 103 140 183 230 280 338 406
#     4  12  23  40  65  96 134 176 222 276 335 404
#
# _framework density 22.016583000000001
#
# number of rings (size 3 to 8) (size 9 to 14) (size 15 to 20)
#    0.000    0.857    0.000    7.286    0.000    7.429 
#    0.000    0.000    0.000    3.429    0.000    0.000 
#    0.000    0.000    0.000    0.000    0.000    0.000 
#
# Total GULP energy -156930.902024 kJ/mol
# GULP energy per Si atom -5604.675072 kJ/mol
# Density = 2.196647 g / cm^3
# Si number density = 22.016583 Si / 1000 Ang^3
#
#
#
# Elastic Constant Matrix: (Units=GPa)
#
#
# Indices 1 2 3 4 5 6 
#
# 1 136.6520 67.7176 90.2968 0.0000 0.0000 0.0000
# 2 67.7176 136.6526 90.2972 0.0000 0.0000 0.0000
# 3 90.2968 90.2972 238.5967 0.0000 0.0000 0.0000
# 4 0.0000 0.0000 0.0000 46.4130 0.0000 0.0000
# 5 0.0000 0.0000 0.0000 0.0000 46.4131 0.0000
# 6 0.0000 0.0000 0.0000 0.0000 0.0000 37.4968
#
#
#
# Elastic Compliance Matrix: (Units=1/GPa)
#
#
# Indices 1 2 3 4 5 6 
#
# 1 0.010929 -0.003577 -0.002782 0.000000 0.000000 0.000000
# 2 -0.003577 0.010929 -0.002782 0.000000 0.000000 0.000000
# 3 -0.002782 -0.002782 0.006297 0.000000 0.000000 0.000000
# 4 0.000000 0.000000 0.000000 0.021546 0.000000 0.000000
# 5 0.000000 0.000000 0.000000 0.000000 0.021546 0.000000
# 6 0.000000 0.000000 0.000000 0.000000 0.000000 0.026669
#
#
# Mechanical properties :
#
#
# Convention : Reuss Voigt Hill
#
# Bulk Modulus (GPa) = 101.30272 112.05828 106.68050
# Shear Modulus (GPa) = 41.84462 43.63723 42.74092
#
# Velocity S-wave (km/s) = 4.36431 4.45681 4.41081
# Velocity P-wave (km/s) = 8.45625 8.80295 8.63134
#
# Compressibility (1/GPa) = 0.00987140
#
# Stress axis : x y z
#
# Youngs Moduli (GPa) = 91.49902 91.49932 158.80469
#
# Poissons Ratio (x) = 0.32733 0.44183
# Poissons Ratio (y) = 0.32733 0.44183
# Poissons Ratio (z) = 0.25457 0.25457
#
# Static dielectric constant tensor:
#      x y z
#    x 1.815470 0.000000 0.000000 
#    y 0.000000 1.815470 0.000000 
#    z 0.000000 0.000000 1.754620 
# 
# From -- ./inp_files/2603.got.cif
#   From: 2010.05.17/outbox.cif.g08.bks.cpg/sg90_2_cif.got.tgz:2603.got - 2010.06.03 19:17:45.
