data_PCOD9547164
_publ_section_title
;
Structure prediction by ZEFSAII (Michael W. Deem and Ramdas Pophale) SiO2 
 PCOD9547164
Probable space group: P 4 21 2
;
_chemical_formula_sum "Si O2"
_cell_formula_units_Z 48
_cell_length_a 13.985101
_cell_length_b 13.985101
_cell_length_c 12.478639
_cell_angle_alpha 90.000000
_cell_angle_beta 90.000000
_cell_angle_gamma 90.000000
_cell_volume 2440.610275
_symmetry_space_group_name_H-M "P 4 21 2"
_symmetry_group_IT_number 90
_symmetry_cell_setting 'tetragonal'
loop_
_space_group_symop_operation_xyz
x,y,z
1/2-y,1/2+x,z
-x,-y,z
1/2+y,1/2-x,z
1/2+x,1/2-y,-z
1/2-x,1/2+y,-z
y,x,-z
-y,-x,-z
loop_
_atom_site_type_symbol
_atom_site_label
_atom_site_fract_x
_atom_site_fract_y
_atom_site_fract_z
Si Si1 0.762285 0.083457 0.118217
Si Si2 0.717476 0.293612 0.626699
Si Si3 0.033064 0.235717 0.102649
Si Si4 0.095654 0.621784 0.711004
Si Si5 0.056970 0.095372 0.760108
Si Si6 0.289256 0.842302 0.820734
O O1 0.655316 0.096808 0.164901
O O2 0.806281 0.189216 0.127782
O O3 0.826925 0.018388 0.197039
O O4 0.766093 0.025075 0.008190
O O5 0.710395 0.289606 0.500000
O O6 0.828806 0.312170 0.652871
O O7 0.649091 0.377428 0.673022
O O8 0.694666 0.203482 0.703521
O O9 0.063523 0.130816 0.145157
O O10 0.126739 0.301336 0.104239
O O11 0.955874 0.281020 0.183848
O O12 0.128108 0.515189 0.684713
O O13 0.000000 0.000000 0.725436
#
# Coordination Sequence:
#
# PCOD9547164 Si02
#       6
#     8   8   8   8   8   8
#     4  11  22  39  67  95 135 176 212 268 333 397
#     4  10  23  46  67  93 131 172 220 284 338 382
#     4  11  24  39  66  94 138 176 216 266 342 398
#     4  10  21  40  65  98 132 164 219 274 325 404
#     4  11  22  40  64  99 130 166 223 276 321 403
#     4  10  24  42  60  95 132 169 226 275 318 412
#
# _framework density 19.667211000000002
#
# number of rings (size 3 to 8) (size 9 to 14) (size 15 to 20)
#    0.000    1.500    3.333    1.000    2.333    4.000 
#    6.000    0.000    0.000    0.000    0.000    0.000 
#    0.000    0.000    0.000    0.000    0.000    0.000 
#
# Total GULP energy -267708.363414 kJ/mol
# GULP energy per Si atom -5577.257571 kJ/mol
# Density = 1.962245 g / cm^3
# Si number density = 19.667211 Si / 1000 Ang^3
#
#
#
# Elastic Constant Matrix: (Units=GPa)
#
#
# Indices 1 2 3 4 5 6 
#
# 1 112.9716 34.2176 36.7666 0.0000 0.0000 0.0000
# 2 34.2176 112.9711 36.7664 0.0000 0.0000 0.0000
# 3 36.7666 36.7664 131.5310 0.0000 0.0000 0.0000
# 4 0.0000 0.0000 0.0000 14.7636 0.0000 0.0000
# 5 0.0000 0.0000 0.0000 0.0000 14.7639 0.0000
# 6 0.0000 0.0000 0.0000 0.0000 0.0000 19.3647
#
#
#
# Elastic Compliance Matrix: (Units=1/GPa)
#
#
# Indices 1 2 3 4 5 6 
#
# 1 0.010297 -0.002401 -0.002207 0.000000 0.000000 0.000000
# 2 -0.002401 0.010297 -0.002207 0.000000 0.000000 0.000000
# 3 -0.002207 -0.002207 0.008837 0.000000 0.000000 0.000000
# 4 0.000000 0.000000 0.000000 0.067734 0.000000 0.000000
# 5 0.000000 0.000000 0.000000 0.000000 0.067733 0.000000
# 6 0.000000 0.000000 0.000000 0.000000 0.000000 0.051640
#
#
# Mechanical properties :
#
#
# Convention : Reuss Voigt Hill
#
# Bulk Modulus (GPa) = 63.28767 63.66389 63.47578
# Shear Modulus (GPa) = 21.23722 26.42666 23.83194
#
# Velocity S-wave (km/s) = 3.28964 3.66962 3.48481
# Velocity P-wave (km/s) = 6.83214 7.09899 6.96684
#
# Compressibility (1/GPa) = 0.01580087
#
# Stress axis : x y z
#
# Youngs Moduli (GPa) = 97.11323 97.11287 113.16304
#
# Poissons Ratio (x) = 0.23312 0.24979
# Poissons Ratio (y) = 0.23312 0.24979
# Poissons Ratio (z) = 0.21436 0.21436
#
# Static dielectric constant tensor:
#      x y z
#    x 1.713150 0.000000 0.000000 
#    y 0.000000 1.713150 0.000000 
#    z 0.000000 0.000000 1.702670 
# 
# From -- ./inp_files/2119.got.cif
#   From: 2010.05.17/outbox.cif.g08.bks.cpg/sg90_2_cif.got.tgz:2119.got - 2010.06.03 19:17:45.
