data_PCOD9547881
_publ_section_title
;
Structure prediction by ZEFSAII (Michael W. Deem and Ramdas Pophale) SiO2 
 PCOD9547881
Probable space group: P 41 2 2
;
_chemical_formula_sum "Si O2"
_cell_formula_units_Z 56
_cell_length_a 12.332687
_cell_length_b 12.332687
_cell_length_c 18.369469
_cell_angle_alpha 90.000000
_cell_angle_beta 90.000000
_cell_angle_gamma 90.000000
_cell_volume 2793.907485
_symmetry_space_group_name_H-M "P 41 2 2"
_symmetry_group_IT_number 91
_symmetry_cell_setting 'tetragonal'
loop_
_space_group_symop_operation_xyz
x,y,z
-y,x,1/4+z
-x,-y,1/2+z
y,-x,3/4+z
x,-y,1/2-z
-x,y,-z
y,x,3/4-z
-y,-x,1/4-z
loop_
_atom_site_type_symbol
_atom_site_label
_atom_site_fract_x
_atom_site_fract_y
_atom_site_fract_z
Si Si1 0.699815 0.847777 0.920418
Si Si2 0.111859 0.488241 0.086863
Si Si3 0.914689 0.788226 0.142407
Si Si4 0.100033 0.276155 0.166460
Si Si5 0.557097 0.136834 0.822880
Si Si6 0.559739 0.308031 0.073849
Si Si7 0.856990 0.752679 0.306705
O O1 0.751151 0.751151 0.875000
O O2 0.574472 0.859149 0.899017
O O3 0.767960 0.956407 0.896904
O O4 0.708604 0.840488 0.006839
O O5 0.140465 0.365054 0.108100
O O6 0.981519 0.502037 0.080928
O O7 0.162939 0.531629 0.011345
O O8 0.850173 0.885655 0.104243
O O9 0.875694 0.681801 0.097462
O O10 0.873166 0.797011 0.225517
O O11 0.973235 0.301172 0.177580
O O12 0.507551 0.223671 0.877472
O O13 0.593081 0.406920 0.125000
O O14 0.667894 0.241129 0.053203
O O15 0.500000 0.338432 0.000000
O O16 0.830153 0.830153 0.375000
#
# Coordination Sequence:
#
# PCOD9547881 Si02
#       7
#     8   8   8   8   8   8   8
#     4  10  22  41  59  82 118 164 211 244 302 380
#     4  10  21  34  59  88 116 155 202 259 304 351
#     4  10  22  37  59  85 120 165 200 247 302 370
#     4  11  22  36  60  89 122 155 202 260 307 361
#     4  10  20  36  57  87 119 154 202 247 300 374
#     4  11  22  38  63  90 120 156 199 249 308 375
#     4  10  22  36  56  89 124 156 193 248 310 360
#
# _framework density 20.043612
#
# number of rings (size 3 to 8) (size 9 to 14) (size 15 to 20)
#    0.000    1.714    2.857    1.286    4.000    2.857 
#    0.000    2.857    0.000    6.857    0.000    0.000 
#    0.000    0.000    0.000    0.000    0.000    0.000 
#
# Total GULP energy -312210.427864 kJ/mol
# GULP energy per Si atom -5575.186212 kJ/mol
# Density = 1.999799 g / cm^3
# Si number density = 20.043612 Si / 1000 Ang^3
#
#
#
# Elastic Constant Matrix: (Units=GPa)
#
#
# Indices 1 2 3 4 5 6 
#
# 1 25.1753 12.2959 12.5447 0.0000 0.0000 0.0000
# 2 12.2959 25.1753 12.5455 0.0000 0.0000 0.0000
# 3 12.5447 12.5455 113.8009 0.0000 0.0000 0.0000
# 4 0.0000 0.0000 0.0000 22.2142 0.0000 0.0000
# 5 0.0000 0.0000 0.0000 0.0000 22.2145 0.0000
# 6 0.0000 0.0000 0.0000 0.0000 0.0000 15.4006
#
#
#
# Elastic Compliance Matrix: (Units=1/GPa)
#
#
# Indices 1 2 3 4 5 6 
#
# 1 0.053228 -0.024415 -0.003176 0.000000 0.000000 0.000000
# 2 -0.024415 0.053229 -0.003177 0.000000 0.000000 0.000000
# 3 -0.003176 -0.003177 0.009488 0.000000 0.000000 0.000000
# 4 0.000000 0.000000 0.000000 0.045016 0.000000 0.000000
# 5 0.000000 0.000000 0.000000 0.000000 0.045016 0.000000
# 6 0.000000 0.000000 0.000000 0.000000 0.000000 0.064932
#
#
# Mechanical properties :
#
#
# Convention : Reuss Voigt Hill
#
# Bulk Modulus (GPa) = 18.37891 26.54705 22.46298
# Shear Modulus (GPa) = 14.26206 20.41689 17.33948
#
# Velocity S-wave (km/s) = 2.67039 3.19505 2.94443
# Velocity P-wave (km/s) = 4.32404 5.18503 4.77398
#
# Compressibility (1/GPa) = 0.05441018
#
# Stress axis : x y z
#
# Youngs Moduli (GPa) = 18.78698 18.78679 105.40086
#
# Poissons Ratio (x) = 0.45867 0.33476
# Poissons Ratio (y) = 0.45868 0.33482
# Poissons Ratio (z) = 0.05967 0.05968
#
# Static dielectric constant tensor:
#      x y z
#    x 1.719480 0.000000 0.000000 
#    y 0.000000 1.719480 0.000000 
#    z 0.000000 0.000000 1.722860 
# 
# From -- ./inp_files/6399.got.cif
#   From: 2010.05.17/outbox.cif.g08.bks.cpg/sg91_4_cif.got.tgz:6399.got - 2010.06.03 19:20:03.
