data_PCOD9547470
_publ_section_title
;
Structure prediction by ZEFSAII (Michael W. Deem and Ramdas Pophale) SiO2 
 PCOD9547470
Probable space group: P 41 2 2
;
_chemical_formula_sum "Si O2"
_cell_formula_units_Z 44
_cell_length_a 12.228444
_cell_length_b 12.228444
_cell_length_c 12.752775
_cell_angle_alpha 90.000000
_cell_angle_beta 90.000000
_cell_angle_gamma 90.000000
_cell_volume 1906.984203
_symmetry_space_group_name_H-M "P 41 2 2"
_symmetry_group_IT_number 91
_symmetry_cell_setting 'tetragonal'
loop_
_space_group_symop_operation_xyz
x,y,z
-y,x,1/4+z
-x,-y,1/2+z
y,-x,3/4+z
x,-y,1/2-z
-x,y,-z
y,x,3/4-z
-y,-x,1/4-z
loop_
_atom_site_type_symbol
_atom_site_label
_atom_site_fract_x
_atom_site_fract_y
_atom_site_fract_z
Si Si1 0.479978 0.142667 0.191855
Si Si2 0.500000 0.684984 0.500000
Si Si3 0.828990 0.171011 0.125000
Si Si4 0.740768 0.658079 0.544134
Si Si5 0.500000 0.020734 0.500000
Si Si6 0.240832 0.151589 0.199100
Si Si7 0.242465 0.024854 0.486453
O O1 0.557937 0.178008 0.285550
O O2 0.360908 0.128567 0.241951
O O3 0.505660 0.044928 0.112001
O O4 0.495952 0.239374 0.104057
O O5 0.617426 0.626634 0.508373
O O6 0.746678 0.207365 0.215742
O O7 0.950386 0.200655 0.164698
O O8 0.739370 0.727824 0.649020
O O9 0.371284 0.057571 0.494246
O O10 0.131858 0.167664 0.263929
O O11 0.226802 0.057374 0.111367
#
# Coordination Sequence:
#
# PCOD9547470 Si02
#       7
#     8   4   4   8   4   8   8
#     4   9  14  28  45  71 103 138 171 220 280 341
#     4   9  14  20  41  68 108 134 163 215 284 340
#     4  10  16  26  52  74 106 128 180 230 286 316
#     4  10  15  26  45  76 106 139 177 229 279 344
#     4   9  16  30  53  70 110 136 177 233 286 322
#     4   9  21  31  53  82 113 143 189 239 295 333
#     4  10  19  34  50  88 110 147 186 246 291 334
#
# _framework density 23.073081999999999
#
# number of rings (size 3 to 8) (size 9 to 14) (size 15 to 20)
#    0.000    2.545    3.636    2.182    0.000    2.909 
#    0.000    0.909    0.000    0.000   23.636    0.000 
#    0.000    0.000    0.000    0.000    0.000    0.000 
#
# Total GULP energy -245005.482171 kJ/mol
# GULP energy per Si atom -5568.306413 kJ/mol
# Density = 2.302057 g / cm^3
# Si number density = 23.073082 Si / 1000 Ang^3
#
#
#
# Elastic Constant Matrix: (Units=GPa)
#
#
# Indices 1 2 3 4 5 6 
#
# 1 128.9951 59.8050 42.0125 0.0000 0.0000 0.0000
# 2 59.8050 128.9947 42.0124 0.0000 0.0000 0.0000
# 3 42.0125 42.0124 38.0680 0.0000 0.0000 0.0000
# 4 0.0000 0.0000 0.0000 20.0262 0.0000 0.0000
# 5 0.0000 0.0000 0.0000 0.0000 20.0264 0.0000
# 6 0.0000 0.0000 0.0000 0.0000 0.0000 16.3177
#
#
#
# Elastic Compliance Matrix: (Units=1/GPa)
#
#
# Indices 1 2 3 4 5 6 
#
# 1 0.012431 -0.002022 -0.011488 0.000000 0.000000 0.000000
# 2 -0.002022 0.012431 -0.011488 0.000000 0.000000 0.000000
# 3 -0.011488 -0.011488 0.051625 0.000000 0.000000 0.000000
# 4 0.000000 0.000000 0.000000 0.049935 0.000000 0.000000
# 5 0.000000 0.000000 0.000000 0.000000 0.049934 0.000000
# 6 0.000000 0.000000 0.000000 0.000000 0.000000 0.061283
#
#
# Mechanical properties :
#
#
# Convention : Reuss Voigt Hill
#
# Bulk Modulus (GPa) = 37.74679 64.85750 51.30215
# Shear Modulus (GPa) = 16.86541 21.42258 19.14399
#
# Velocity S-wave (km/s) = 2.70655 3.05038 2.88360
# Velocity P-wave (km/s) = 5.11492 6.37001 5.77665
#
# Compressibility (1/GPa) = 0.02649232
#
# Stress axis : x y z
#
# Youngs Moduli (GPa) = 80.44346 80.44333 19.37044
#
# Poissons Ratio (x) = 0.16265 0.22252
# Poissons Ratio (y) = 0.16265 0.22252
# Poissons Ratio (z) = 0.92412 0.92412
#
# Static dielectric constant tensor:
#      x y z
#    x 1.846540 0.000000 0.000000 
#    y 0.000000 1.846560 0.000000 
#    z 0.000000 0.000000 2.110660 
# 
# From -- ./inp_files/5530.got.cif
#   From: 2010.05.17/outbox.cif.g08.bks.cpg/sg91_3_cif.got.tgz:5530.got - 2010.06.03 19:20:03.
