data_PCOD9548066
_publ_section_title
;
Structure prediction by ZEFSAII (Michael W. Deem and Ramdas Pophale) SiO2 
 PCOD9548066
Probable space group: P 41 2 2
;
_chemical_formula_sum "Si O2"
_cell_formula_units_Z 36
_cell_length_a 12.199923
_cell_length_b 12.199923
_cell_length_c 11.376691
_cell_angle_alpha 90.000000
_cell_angle_beta 90.000000
_cell_angle_gamma 90.000000
_cell_volume 1693.285314
_symmetry_space_group_name_H-M "P 41 2 2"
_symmetry_group_IT_number 91
_symmetry_cell_setting 'tetragonal'
loop_
_space_group_symop_operation_xyz
x,y,z
-y,x,1/4+z
-x,-y,1/2+z
y,-x,3/4+z
x,-y,1/2-z
-x,y,-z
y,x,3/4-z
-y,-x,1/4-z
loop_
_atom_site_type_symbol
_atom_site_label
_atom_site_fract_x
_atom_site_fract_y
_atom_site_fract_z
Si Si1 0.370343 0.191906 0.518144
Si Si2 0.500000 0.590230 0.500000
Si Si3 0.247149 0.619028 0.902852
Si Si4 0.365305 0.953896 0.486086
Si Si5 0.879052 0.592437 0.475920
O O1 0.500000 0.209309 0.500000
O O2 0.306089 0.304146 0.504284
O O3 0.351615 0.158135 0.654649
O O4 0.338090 0.078731 0.455127
O O5 0.471623 0.528378 0.625000
O O6 0.596488 0.671338 0.543423
O O7 0.134085 0.669813 0.858499
O O8 0.210705 0.500493 0.950332
O O9 0.500000 0.949778 0.500000
O O10 0.332451 0.905468 0.613642
O O11 0.000000 0.539902 0.500000
#
# Coordination Sequence:
#
# PCOD9548066 Si02
#       5
#     8   4   8   8   8
#     4  10  21  32  51  81 112 141 196 249 292 361
#     4  12  26  40  58  88 138 178 206 246 308 398
#     4  11  20  36  57  78 114 162 197 244 318 372
#     4   8  16  34  53  75 101 141 198 245 285 354
#     4   9  17  34  55  77 106 146 197 251 288 359
#
# _framework density 21.260445000000001
#
# number of rings (size 3 to 8) (size 9 to 14) (size 15 to 20)
#    0.000    2.222    3.333    2.667    1.556    0.889 
#    0.000    0.000    0.000    0.000    0.000   14.000 
#    0.000    0.000    0.000    0.000    0.000    0.000 
#
# Total GULP energy -200561.643075 kJ/mol
# GULP energy per Si atom -5571.156752 kJ/mol
# Density = 2.121206 g / cm^3
# Si number density = 21.260445 Si / 1000 Ang^3
#
#
#
# Elastic Constant Matrix: (Units=GPa)
#
#
# Indices 1 2 3 4 5 6 
#
# 1 71.8890 43.8822 10.7332 0.0000 0.0000 0.0000
# 2 43.8822 71.8896 10.7334 0.0000 0.0000 0.0000
# 3 10.7332 10.7334 74.6831 0.0000 0.0000 0.0000
# 4 0.0000 0.0000 0.0000 21.8102 0.0000 0.0000
# 5 0.0000 0.0000 0.0000 0.0000 21.8101 0.0000
# 6 0.0000 0.0000 0.0000 0.0000 0.0000 -6.8017
#
#
#
# Elastic Compliance Matrix: (Units=1/GPa)
#
#
# Indices 1 2 3 4 5 6 
#
# 1 0.022290 -0.013416 -0.001275 0.000000 0.000000 0.000000
# 2 -0.013416 0.022290 -0.001275 0.000000 0.000000 0.000000
# 3 -0.001275 -0.001275 0.013757 0.000000 0.000000 0.000000
# 4 0.000000 0.000000 0.000000 0.045850 0.000000 0.000000
# 5 0.000000 0.000000 0.000000 0.000000 0.045850 0.000000
# 6 0.000000 0.000000 0.000000 0.000000 0.000000 -0.147021
#
#
# Mechanical properties :
#
#
# Convention : Reuss Voigt Hill
#
# Bulk Modulus (GPa) = 37.87398 38.79549 38.33473
# Shear Modulus (GPa) = 114.28856 17.57124 65.92990
#
# Velocity S-wave (km/s) = 7.33983 2.87797 5.57476
# Velocity P-wave (km/s) = 9.47015 5.41580 7.71410
#
# Compressibility (1/GPa) = 0.02640335
#
# Stress axis : x y z
#
# Youngs Moduli (GPa) = 44.86356 44.86389 72.69290
#
# Poissons Ratio (x) = 0.60187 0.09271
# Poissons Ratio (y) = 0.60187 0.09271
# Poissons Ratio (z) = 0.05722 0.05722
#
# Static dielectric constant tensor:
#      x y z
#    x 1.820270 0.000000 0.000000 
#    y 0.000000 1.820270 0.000000 
#    z 0.000000 0.000000 1.956970 
# 
# From -- ./inp_files/4593.got.cif
#   From: 2010.05.17/outbox.cif.g08.bks.cpg/sg91_3_cif.got.tgz:4593.got - 2010.06.03 19:20:03.
