data_PCOD9548669
_publ_section_title
;
Structure prediction by ZEFSAII (Michael W. Deem and Ramdas Pophale) SiO2 
 PCOD9548669
Probable space group: P 41 2 2
;
_chemical_formula_sum "Si O2"
_cell_formula_units_Z 56
_cell_length_a 14.515995
_cell_length_b 14.515995
_cell_length_c 13.101026
_cell_angle_alpha 90.000000
_cell_angle_beta 90.000000
_cell_angle_gamma 90.000000
_cell_volume 2760.571045
_symmetry_space_group_name_H-M "P 41 2 2"
_symmetry_group_IT_number 91
_symmetry_cell_setting 'tetragonal'
loop_
_space_group_symop_operation_xyz
x,y,z
-y,x,1/4+z
-x,-y,1/2+z
y,-x,3/4+z
x,-y,1/2-z
-x,y,-z
y,x,3/4-z
-y,-x,1/4-z
loop_
_atom_site_type_symbol
_atom_site_label
_atom_site_fract_x
_atom_site_fract_y
_atom_site_fract_z
Si Si1 0.824037 0.974615 0.367223
Si Si2 0.896484 0.483603 0.030655
Si Si3 0.818326 0.322496 0.170340
Si Si4 0.646143 0.341504 0.482132
Si Si5 0.315497 0.844082 0.340167
Si Si6 0.719643 0.504329 0.906110
Si Si7 0.895866 0.128997 0.505994
O O1 0.919343 0.919343 0.375000
O O2 0.745703 0.903444 0.398410
O O3 0.809371 0.000000 0.250000
O O4 0.829741 0.061368 0.442217
O O5 0.847942 0.417284 0.114443
O O6 0.896938 0.589785 0.066779
O O7 0.824685 0.486159 0.936339
O O8 0.000000 0.454396 0.000000
O O9 0.727104 0.272896 0.125000
O O10 0.813618 0.324113 0.292490
O O11 0.749907 0.306588 0.475132
O O12 0.582670 0.293217 0.568330
O O13 0.660992 0.449358 0.503843
O O14 0.589816 0.323934 0.380604
O O15 0.225157 0.898691 0.306181
O O16 0.866574 0.133427 0.625000
O O17 0.000000 0.091525 0.500000
#
# Coordination Sequence:
#
# PCOD9548669 Si02
#       7
#     8   8   8   8   8   8   8
#     4  11  22  39  63  89 125 167 214 275 334 407
#     4  11  24  42  65  93 136 172 228 278 340 418
#     4  11  23  42  66  91 129 172 227 279 341 410
#     4   9  19  38  66  88 126 161 217 265 334 399
#     4  11  24  41  63  91 134 177 220 276 341 411
#     4   9  19  38  66  92 123 169 211 282 325 404
#     4  12  24  39  63  96 134 174 223 281 346 411
#
# _framework density 20.285658000000002
#
# number of rings (size 3 to 8) (size 9 to 14) (size 15 to 20)
#    0.000    1.429    0.000    6.429    4.000    1.143 
#    5.143    0.000   72.286    0.000    0.000    0.000 
#    0.000    0.000    0.000    0.000    0.000    0.000 
#
# Total GULP energy -312452.302241 kJ/mol
# GULP energy per Si atom -5579.505397 kJ/mol
# Density = 2.023949 g / cm^3
# Si number density = 20.285658 Si / 1000 Ang^3
#
#
#
# Elastic Constant Matrix: (Units=GPa)
#
#
# Indices 1 2 3 4 5 6 
#
# 1 80.7629 13.2976 16.9520 0.0000 0.0000 0.0000
# 2 13.2976 80.7627 16.9518 0.0000 0.0000 0.0000
# 3 16.9520 16.9518 70.1362 0.0000 0.0000 0.0000
# 4 0.0000 0.0000 0.0000 36.4968 0.0000 0.0000
# 5 0.0000 0.0000 0.0000 0.0000 36.4969 0.0000
# 6 0.0000 0.0000 0.0000 0.0000 0.0000 11.3180
#
#
#
# Elastic Compliance Matrix: (Units=1/GPa)
#
#
# Indices 1 2 3 4 5 6 
#
# 1 0.013234 -0.001588 -0.002815 0.000000 0.000000 0.000000
# 2 -0.001588 0.013234 -0.002815 0.000000 0.000000 0.000000
# 3 -0.002815 -0.002815 0.015619 0.000000 0.000000 0.000000
# 4 0.000000 0.000000 0.000000 0.027400 0.000000 0.000000
# 5 0.000000 0.000000 0.000000 0.000000 0.027400 0.000000
# 6 0.000000 0.000000 0.000000 0.000000 0.000000 0.088355
#
#
# Mechanical properties :
#
#
# Convention : Reuss Voigt Hill
#
# Bulk Modulus (GPa) = 36.16454 36.22941 36.19697
# Shear Modulus (GPa) = 23.93558 29.15970 26.54764
#
# Velocity S-wave (km/s) = 3.43873 3.79549 3.62151
# Velocity P-wave (km/s) = 5.79938 6.09147 5.94722
#
# Compressibility (1/GPa) = 0.02765140
#
# Stress axis : x y z
#
# Youngs Moduli (GPa) = 75.56146 75.56135 64.02588
#
# Poissons Ratio (x) = 0.12001 0.18022
# Poissons Ratio (y) = 0.12001 0.18022
# Poissons Ratio (z) = 0.21270 0.21269
#
# Static dielectric constant tensor:
#      x y z
#    x 1.718210 0.000000 0.000000 
#    y 0.000000 1.718210 0.000000 
#    z 0.000000 0.000000 1.488600 
# 
# From -- ./inp_files/3944.got.cif
#   From: 2010.05.17/outbox.cif.g08.bks.cpg/sg91_2_cif.got.tgz:3944.got - 2010.06.03 19:20:03.
