data_PCOD9548160
_publ_section_title
;
Structure prediction by ZEFSAII (Michael W. Deem and Ramdas Pophale) SiO2 
 PCOD9548160
Probable space group: P 41 2 2
;
_chemical_formula_sum "Si O2"
_cell_formula_units_Z 40
_cell_length_a 15.462894
_cell_length_b 15.462894
_cell_length_c 7.996496
_cell_angle_alpha 90.000000
_cell_angle_beta 90.000000
_cell_angle_gamma 90.000000
_cell_volume 1911.970917
_symmetry_space_group_name_H-M "P 41 2 2"
_symmetry_group_IT_number 91
_symmetry_cell_setting 'tetragonal'
loop_
_space_group_symop_operation_xyz
x,y,z
-y,x,1/4+z
-x,-y,1/2+z
y,-x,3/4+z
x,-y,1/2-z
-x,y,-z
y,x,3/4-z
-y,-x,1/4-z
loop_
_atom_site_type_symbol
_atom_site_label
_atom_site_fract_x
_atom_site_fract_y
_atom_site_fract_z
Si Si1 0.820180 0.436182 0.906492
Si Si2 0.316177 0.660895 0.942403
Si Si3 0.152927 0.238994 0.629499
Si Si4 0.500000 0.250473 0.000000
Si Si5 0.000000 0.884063 0.000000
Si Si6 0.906308 0.719500 0.479896
O O1 0.826227 0.500000 0.750000
O O2 0.735461 0.375795 0.884574
O O3 0.806422 0.479916 0.086125
O O4 0.899459 0.369712 0.920017
O O5 0.217995 0.698290 0.971169
O O6 0.307017 0.581332 0.815206
O O7 0.356458 0.643543 0.125000
O O8 0.074843 0.183750 0.554718
O O9 0.116687 0.292887 0.786163
O O10 0.216192 0.164880 0.699050
O O11 0.949247 0.949247 0.875000
O O12 0.000000 0.759846 0.500000
#
# Coordination Sequence:
#
# PCOD9548160 Si02
#       6
#     8   8   8   4   4   8
#     4  11  23  43  68  98 131 175 215 270 335 405
#     4  11  22  41  72  95 129 175 220 270 338 409
#     4  10  22  40  63  93 129 179 228 277 341 415
#     4  12  22  42  70 100 128 166 226 272 322 404
#     4  12  26  38  60  96 134 178 232 298 352 408
#     4  10  21  40  65  92 131 178 224 277 339 406
#
# _framework density 20.920819000000002
#
# number of rings (size 3 to 8) (size 9 to 14) (size 15 to 20)
#    0.000    1.200    4.000    2.400    4.200    1.600 
#    1.800    0.000    8.800    0.000    0.000    0.000 
#    0.000    0.000    0.000    0.000    0.000    0.000 
#
# Total GULP energy -223105.260182 kJ/mol
# GULP energy per Si atom -5577.631505 kJ/mol
# Density = 2.087320 g / cm^3
# Si number density = 20.920819 Si / 1000 Ang^3
#
#
#
# Elastic Constant Matrix: (Units=GPa)
#
#
# Indices 1 2 3 4 5 6 
#
# 1 90.5718 18.6568 38.1679 0.0000 0.0000 0.0000
# 2 18.6568 90.5724 38.1682 0.0000 0.0000 0.0000
# 3 38.1679 38.1682 114.9171 0.0000 0.0000 0.0000
# 4 0.0000 0.0000 0.0000 20.0687 0.0000 0.0000
# 5 0.0000 0.0000 0.0000 0.0000 20.0687 0.0000
# 6 0.0000 0.0000 0.0000 0.0000 0.0000 18.1028
#
#
#
# Elastic Compliance Matrix: (Units=1/GPa)
#
#
# Indices 1 2 3 4 5 6 
#
# 1 0.012914 -0.000991 -0.003960 0.000000 0.000000 0.000000
# 2 -0.000991 0.012914 -0.003960 0.000000 0.000000 0.000000
# 3 -0.003960 -0.003960 0.011332 0.000000 0.000000 0.000000
# 4 0.000000 0.000000 0.000000 0.049829 0.000000 0.000000
# 5 0.000000 0.000000 0.000000 0.000000 0.049829 0.000000
# 6 0.000000 0.000000 0.000000 0.000000 0.000000 0.055240
#
#
# Mechanical properties :
#
#
# Convention : Reuss Voigt Hill
#
# Bulk Modulus (GPa) = 51.71214 54.00524 52.85869
# Shear Modulus (GPa) = 23.11328 25.05262 24.08295
#
# Velocity S-wave (km/s) = 3.32746 3.46424 3.39654
# Velocity P-wave (km/s) = 6.28763 6.47081 6.37988
#
# Compressibility (1/GPa) = 0.01933782
#
# Stress axis : x y z
#
# Youngs Moduli (GPa) = 77.43589 77.43633 88.24290
#
# Poissons Ratio (x) = 0.07677 0.34943
# Poissons Ratio (y) = 0.07677 0.34943
# Poissons Ratio (z) = 0.30664 0.30664
#
# Static dielectric constant tensor:
#      x y z
#    x 1.760180 0.000000 0.000000 
#    y 0.000000 1.760180 0.000000 
#    z 0.000000 0.000000 1.819040 
# 
# From -- ./inp_files/15030.got.cif
#   From: 2010.05.17/outbox.cif.g08.bks.cpg/sg91_8_cif.got.tgz:15030.got - 2010.06.03 19:20:03.
