data_PCOD9548858
_publ_section_title
;
Structure prediction by ZEFSAII (Michael W. Deem and Ramdas Pophale) SiO2 
 PCOD9548858
Probable space group: P 41 21 2
;
_chemical_formula_sum "Si O2"
_cell_formula_units_Z 60
_cell_length_a 12.459702
_cell_length_b 12.459702
_cell_length_c 17.853204
_cell_angle_alpha 90.000000
_cell_angle_beta 90.000000
_cell_angle_gamma 90.000000
_cell_volume 2771.605907
_symmetry_space_group_name_H-M "P 41 21 2"
_symmetry_group_IT_number 92
_symmetry_cell_setting 'tetragonal'
loop_
_space_group_symop_operation_xyz
x,y,z
1/2-y,1/2+x,1/4+z
-x,-y,1/2+z
1/2+y,1/2-x,3/4+z
1/2+x,1/2-y,3/4-z
1/2-x,1/2+y,1/4-z
y,x,-z
-y,-x,1/2-z
loop_
_atom_site_type_symbol
_atom_site_label
_atom_site_fract_x
_atom_site_fract_y
_atom_site_fract_z
Si Si1 0.961299 0.860527 0.933104
Si Si2 0.393998 0.393998 0.500000
Si Si3 0.195407 0.955104 0.199608
Si Si4 0.298764 0.656235 0.946779
Si Si5 0.118754 0.596061 0.505361
Si Si6 0.806776 0.584741 0.109369
Si Si7 0.409878 0.825805 0.166052
Si Si8 0.411771 0.551711 0.364080
O O1 0.897700 0.879040 0.855782
O O2 0.012467 0.743704 0.926194
O O3 0.880176 0.880176 0.000000
O O4 0.053826 0.950082 0.935510
O O5 0.293299 0.389479 0.554997
O O6 0.391198 0.497712 0.446348
O O7 0.114314 0.885687 0.250000
O O8 0.302691 0.887836 0.188812
O O9 0.218909 0.069261 0.238883
O O10 0.133759 0.990204 0.123996
O O11 0.330118 0.776816 0.973563
O O12 0.193692 0.653450 0.895022
O O13 0.120403 0.490771 0.558390
O O14 0.133064 0.564617 0.418612
O O15 0.008388 0.653298 0.527733
O O16 0.394788 0.697769 0.161469
#
# Coordination Sequence:
#
# PCOD9548858 Si02
#       8
#     8   4   8   8   8   8   8   8
#     4  10  22  39  68 103 134 173 237 298 348 437
#     4  10  16  38  76 102 128 172 242 294 362 426
#     4  12  25  48  73 102 143 193 242 293 363 433
#     4  11  23  45  71 104 139 183 241 302 366 425
#     4  11  25  48  69 106 145 194 244 298 371 448
#     4  10  22  37  70 100 138 178 227 308 365 415
#     4  12  28  45  73 104 149 193 244 297 372 449
#     4  11  20  46  71  94 132 191 239 287 347 441
#
# _framework density 21.648101
#
# number of rings (size 3 to 8) (size 9 to 14) (size 15 to 20)
#    0.000    1.067    4.667    2.400    2.800    4.800 
#    0.000    0.000    0.000    0.000    0.000    0.000 
#    0.000    0.000    0.000    0.000    0.000    0.000 
#
# Total GULP energy -335397.596616 kJ/mol
# GULP energy per Si atom -5589.959944 kJ/mol
# Density = 2.159883 g / cm^3
# Si number density = 21.648101 Si / 1000 Ang^3
#
#
#
# Elastic Constant Matrix: (Units=GPa)
#
#
# Indices 1 2 3 4 5 6 
#
# 1 179.5468 -79.5317 -6.7035 0.0000 0.0000 0.0000
# 2 -79.5317 179.5399 -6.7030 0.0000 0.0000 0.0000
# 3 -6.7035 -6.7030 42.1022 0.0000 0.0000 0.0000
# 4 0.0000 0.0000 0.0000 24.7529 0.0000 0.0000
# 5 0.0000 0.0000 0.0000 0.0000 24.7529 0.0000
# 6 0.0000 0.0000 0.0000 0.0000 0.0000 38.3558
#
#
#
# Elastic Compliance Matrix: (Units=1/GPa)
#
#
# Indices 1 2 3 4 5 6 
#
# 1 0.007038 0.003179 0.001627 0.000000 0.000000 0.000000
# 2 0.003179 0.007039 0.001627 0.000000 0.000000 0.000000
# 3 0.001627 0.001627 0.024270 0.000000 0.000000 0.000000
# 4 0.000000 0.000000 0.000000 0.040399 0.000000 0.000000
# 5 0.000000 0.000000 0.000000 0.000000 0.040399 0.000000
# 6 0.000000 0.000000 0.000000 0.000000 0.000000 0.026072
#
#
# Mechanical properties :
#
#
# Convention : Reuss Voigt Hill
#
# Bulk Modulus (GPa) = 19.52737 23.92361 21.72549
# Shear Modulus (GPa) = 33.46199 50.51412 41.98806
#
# Velocity S-wave (km/s) = 3.93584 4.83579 4.40884
# Velocity P-wave (km/s) = 5.44925 6.50038 5.99789
#
# Compressibility (1/GPa) = 0.05121018
#
# Stress axis : x y z
#
# Youngs Moduli (GPa) = 142.08066 142.07534 41.20362
#
# Poissons Ratio (x) = -0.45159 -0.06702
# Poissons Ratio (y) = -0.45160 -0.06702
# Poissons Ratio (z) = -0.23112 -0.23111
#
# Static dielectric constant tensor:
#      x y z
#    x 1.790290 0.000000 0.000000 
#    y 0.000000 1.790290 0.000000 
#    z 0.000000 0.000000 1.825640 
# 
# From -- ./inp_files/3640.got.cif
#   From: 2010.05.17/outbox.cif.g08.bks.cpg/sg92_2_cif.got.tgz:3640.got - 2010.06.03 19:35:17.
