data_PCOD9548674
_publ_section_title
;
Structure prediction by ZEFSAII (Michael W. Deem and Ramdas Pophale) SiO2 
 PCOD9548674
Probable space group: P 41 2 2
;
_chemical_formula_sum "Si O2"
_cell_formula_units_Z 48
_cell_length_a 8.539703
_cell_length_b 8.539703
_cell_length_c 30.814201
_cell_angle_alpha 90.000000
_cell_angle_beta 90.000000
_cell_angle_gamma 90.000000
_cell_volume 2247.172671
_symmetry_space_group_name_H-M "P 41 2 2"
_symmetry_group_IT_number 91
_symmetry_cell_setting 'tetragonal'
loop_
_space_group_symop_operation_xyz
x,y,z
-y,x,1/4+z
-x,-y,1/2+z
y,-x,3/4+z
x,-y,1/2-z
-x,y,-z
y,x,3/4-z
-y,-x,1/4-z
loop_
_atom_site_type_symbol
_atom_site_label
_atom_site_fract_x
_atom_site_fract_y
_atom_site_fract_z
Si Si1 0.324543 0.143783 0.912266
Si Si2 0.823302 0.151322 0.994899
Si Si3 0.604827 0.625537 0.558271
Si Si4 0.286640 0.207032 0.615228
Si Si5 0.045675 0.757681 0.159932
Si Si6 0.502092 0.271710 0.547866
O O1 0.248367 0.248367 0.875000
O O2 0.471862 0.247281 0.928671
O O3 0.324867 0.976067 0.888112
O O4 0.232784 0.106493 0.956990
O O5 0.709438 0.288058 0.977719
O O6 0.821454 0.017598 0.957010
O O7 0.000000 0.208935 0.000000
O O8 0.710623 0.599816 0.600641
O O9 0.552409 0.452366 0.545778
O O10 0.117659 0.256212 0.633340
O O11 0.329598 0.272276 0.568369
O O12 0.157904 0.613789 0.173718
O O13 0.140301 0.859700 0.125000
O O14 0.500000 0.202097 0.500000
#
# Coordination Sequence:
#
# PCOD9548674 Si02
#       6
#     8   8   8   8   8   8
#     4  12  23  41  69  98 135 181 231 291 360 432
#     4  11  23  43  68  98 134 177 234 292 352 431
#     4  11  25  43  66  97 135 181 235 292 353 427
#     4  11  22  40  65  97 129 172 226 280 349 420
#     4  11  24  43  68  99 138 179 228 291 356 421
#     4  12  25  44  67  97 138 182 232 288 354 429
#
# _framework density 21.360174000000001
#
# number of rings (size 3 to 8) (size 9 to 14) (size 15 to 20)
#    0.000    0.667    0.000   10.500    0.000    0.000 
#    0.000    7.500    0.000    0.000    0.000    0.000 
#    0.000    0.000    0.000    0.000    0.000    0.000 
#
# Total GULP energy -267588.955419 kJ/mol
# GULP energy per Si atom -5574.769905 kJ/mol
# Density = 2.131156 g / cm^3
# Si number density = 21.360174 Si / 1000 Ang^3
#
#
#
# Elastic Constant Matrix: (Units=GPa)
#
#
# Indices 1 2 3 4 5 6 
#
# 1 115.8397 59.4983 50.6612 0.0000 0.0000 0.0000
# 2 59.4983 115.8393 50.6611 0.0000 0.0000 0.0000
# 3 50.6612 50.6611 158.0053 0.0000 0.0000 0.0000
# 4 0.0000 0.0000 0.0000 39.3423 0.0000 0.0000
# 5 0.0000 0.0000 0.0000 0.0000 39.3425 0.0000
# 6 0.0000 0.0000 0.0000 0.0000 0.0000 11.1643
#
#
#
# Elastic Compliance Matrix: (Units=1/GPa)
#
#
# Indices 1 2 3 4 5 6 
#
# 1 0.012375 -0.005374 -0.002245 0.000000 0.000000 0.000000
# 2 -0.005374 0.012375 -0.002245 0.000000 0.000000 0.000000
# 3 -0.002245 -0.002245 0.007768 0.000000 0.000000 0.000000
# 4 0.000000 0.000000 0.000000 0.025418 0.000000 0.000000
# 5 0.000000 0.000000 0.000000 0.000000 0.025418 0.000000
# 6 0.000000 0.000000 0.000000 0.000000 0.000000 0.089571
#
#
# Mechanical properties :
#
#
# Convention : Reuss Voigt Hill
#
# Bulk Modulus (GPa) = 78.18115 79.03616 78.60866
# Shear Modulus (GPa) = 25.39171 33.22740 29.30955
#
# Velocity S-wave (km/s) = 3.45155 3.94836 3.70828
# Velocity P-wave (km/s) = 7.25018 7.60710 7.43079
#
# Compressibility (1/GPa) = 0.01279081
#
# Stress axis : x y z
#
# Youngs Moduli (GPa) = 80.81044 80.81022 128.72977
#
# Poissons Ratio (x) = 0.43430 0.28893
# Poissons Ratio (y) = 0.43430 0.28893
# Poissons Ratio (z) = 0.18138 0.18138
#
# Static dielectric constant tensor:
#      x y z
#    x 1.799100 0.000000 0.000000 
#    y 0.000000 1.799110 0.000000 
#    z 0.000000 0.000000 1.831020 
# 
# From -- ./inp_files/13580.got.cif
#   From: 2010.05.17/outbox.cif.g08.bks.cpg/sg91_7_cif.got.tgz:13580.got - 2010.06.03 19:20:03.
