data_PCOD9548954
_publ_section_title
;
Structure prediction by ZEFSAII (Michael W. Deem and Ramdas Pophale) SiO2 
 PCOD9548954
Probable space group: P 41 21 2
;
_chemical_formula_sum "Si O2"
_cell_formula_units_Z 48
_cell_length_a 9.235181
_cell_length_b 9.235181
_cell_length_c 29.624984
_cell_angle_alpha 90.000000
_cell_angle_beta 90.000000
_cell_angle_gamma 90.000000
_cell_volume 2526.672465
_symmetry_space_group_name_H-M "P 41 21 2"
_symmetry_group_IT_number 92
_symmetry_cell_setting 'tetragonal'
loop_
_space_group_symop_operation_xyz
x,y,z
1/2-y,1/2+x,1/4+z
-x,-y,1/2+z
1/2+y,1/2-x,3/4+z
1/2+x,1/2-y,3/4-z
1/2-x,1/2+y,1/4-z
y,x,-z
-y,-x,1/2-z
loop_
_atom_site_type_symbol
_atom_site_label
_atom_site_fract_x
_atom_site_fract_y
_atom_site_fract_z
Si Si1 0.188920 0.963022 0.014419
Si Si2 0.295614 0.940686 0.260768
Si Si3 0.001957 0.113918 0.889912
Si Si4 0.047709 0.403829 0.832442
Si Si5 0.579727 0.259314 0.106273
Si Si6 0.760978 0.595656 0.830601
O O1 0.166780 0.913337 0.065559
O O2 0.237278 0.865633 0.972483
O O3 0.310938 0.088112 0.015988
O O4 0.038587 0.038587 0.000000
O O5 0.143892 0.856109 0.250000
O O6 0.347092 0.040707 0.219119
O O7 0.296448 0.025764 0.307685
O O8 0.039650 0.258372 0.862554
O O9 0.913629 0.998098 0.861057
O O10 0.140064 0.023056 0.906554
O O11 0.906558 0.505234 0.836793
O O12 0.169463 0.507731 0.853080
O O13 0.753559 0.259711 0.107358
#
# Coordination Sequence:
#
# PCOD9548954 Si02
#       6
#     8   8   8   8   8   8
#     4   8  17  35  59  80 112 153 207 251 286 368
#     4  10  19  37  58  91 119 154 214 262 298 362
#     4  11  20  38  62  89 114 165 211 248 305 381
#     4  11  22  39  63  89 119 164 213 257 306 384
#     4  12  23  36  62  90 127 159 198 266 324 367
#     4  10  23  40  57  88 130 156 199 260 321 368
#
# _framework density 18.997316999999999
#
# number of rings (size 3 to 8) (size 9 to 14) (size 15 to 20)
#    0.000    1.667    3.333    3.000    2.333    0.000 
#    0.000    0.000    0.000    0.000    0.000    0.000 
#    0.000    0.000    0.000    0.000    0.000    0.000 
#
# Total GULP energy -267449.742593 kJ/mol
# GULP energy per Si atom -5571.869637 kJ/mol
# Density = 1.895408 g / cm^3
# Si number density = 18.997317 Si / 1000 Ang^3
#
#
#
# Elastic Constant Matrix: (Units=GPa)
#
#
# Indices 1 2 3 4 5 6 
#
# 1 51.0112 5.1807 -0.2243 0.0000 0.0000 0.0000
# 2 5.1807 51.0103 -0.2246 0.0000 0.0000 0.0000
# 3 -0.2243 -0.2246 69.6854 0.0000 0.0000 0.0000
# 4 0.0000 0.0000 0.0000 25.9812 0.0000 0.0000
# 5 0.0000 0.0000 0.0000 0.0000 25.9814 0.0000
# 6 0.0000 0.0000 0.0000 0.0000 0.0000 17.4511
#
#
#
# Elastic Compliance Matrix: (Units=1/GPa)
#
#
# Indices 1 2 3 4 5 6 
#
# 1 0.019808 -0.002011 0.000057 0.000000 0.000000 0.000000
# 2 -0.002011 0.019808 0.000057 0.000000 0.000000 0.000000
# 3 0.000057 0.000057 0.014351 0.000000 0.000000 0.000000
# 4 0.000000 0.000000 0.000000 0.038489 0.000000 0.000000
# 5 0.000000 0.000000 0.000000 0.000000 0.038489 0.000000
# 6 0.000000 0.000000 0.000000 0.000000 0.000000 0.057303
#
#
# Mechanical properties :
#
#
# Convention : Reuss Voigt Hill
#
# Bulk Modulus (GPa) = 19.93088 20.13005 20.03047
# Shear Modulus (GPa) = 23.95018 25.01442 24.48230
#
# Velocity S-wave (km/s) = 3.55451 3.63262 3.59377
# Velocity P-wave (km/s) = 5.23070 5.31167 5.27134
#
# Compressibility (1/GPa) = 0.05017339
#
# Stress axis : x y z
#
# Youngs Moduli (GPa) = 50.48447 50.48360 69.68359
#
# Poissons Ratio (x) = 0.10155 -0.00399
# Poissons Ratio (y) = 0.10155 -0.00400
# Poissons Ratio (z) = -0.00289 -0.00290
#
# Static dielectric constant tensor:
#      x y z
#    x 1.662790 0.000000 0.000000 
#    y 0.000000 1.662790 0.000000 
#    z 0.000000 0.000000 1.712550 
# 
# From -- ./inp_files/4517.got.cif
#   From: 2010.05.17/outbox.cif.g08.bks.cpg/sg92_3_cif.got.tgz:4517.got - 2010.06.03 19:35:17.
