data_PCOD9548472
_publ_section_title
;
Structure prediction by ZEFSAII (Michael W. Deem and Ramdas Pophale) SiO2 
 PCOD9548472
Probable space group: P 41 2 2
;
_chemical_formula_sum "Si O2"
_cell_formula_units_Z 40
_cell_length_a 15.593821
_cell_length_b 15.593821
_cell_length_c 7.797361
_cell_angle_alpha 90.000000
_cell_angle_beta 90.000000
_cell_angle_gamma 90.000000
_cell_volume 1896.062858
_symmetry_space_group_name_H-M "P 41 2 2"
_symmetry_group_IT_number 91
_symmetry_cell_setting 'tetragonal'
loop_
_space_group_symop_operation_xyz
x,y,z
-y,x,1/4+z
-x,-y,1/2+z
y,-x,3/4+z
x,-y,1/2-z
-x,y,-z
y,x,3/4-z
-y,-x,1/4-z
loop_
_atom_site_type_symbol
_atom_site_label
_atom_site_fract_x
_atom_site_fract_y
_atom_site_fract_z
Si Si1 0.775624 0.000000 0.250000
Si Si2 0.500000 0.132440 0.000000
Si Si3 0.580201 0.580201 0.375000
Si Si4 0.199723 0.213685 0.067503
Si Si5 0.490497 0.265246 0.301154
Si Si6 0.679669 0.945492 0.581561
Si Si7 0.294541 0.705460 0.125000
O O1 0.811521 0.901263 0.217192
O O2 0.722222 0.991562 0.421893
O O3 0.506939 0.189781 0.169291
O O4 0.413647 0.080935 0.021272
O O5 0.500000 0.578433 0.500000
O O6 0.662359 0.559034 0.493046
O O7 0.257047 0.133077 0.122273
O O8 0.223670 0.279987 0.221472
O O9 0.235331 0.235331 0.875000
O O10 0.500000 0.243510 0.500000
O O11 0.389165 0.289457 0.289005
O O12 0.672460 0.000000 0.750000
#
# Coordination Sequence:
#
# PCOD9548472 Si02
#       7
#     4   4   4   8   8   8   4
#     4  10  24  44  78 102 146 194 238 316 376 452
#     4  12  28  48  66 110 148 194 248 318 372 472
#     4  12  23  46  64  96 140 188 253 320 374 436
#     4  10  23  45  75 107 144 188 250 312 386 462
#     4  12  28  42  70  98 142 198 257 314 383 452
#     4  11  25  46  74 108 148 193 242 306 383 463
#     4  12  23  44  70 104 140 198 251 316 386 474
#
# _framework density 21.096349
#
# number of rings (size 3 to 8) (size 9 to 14) (size 15 to 20)
#    0.000    0.800    3.000    3.600    7.000    0.000 
#    1.800    0.000   19.800    0.000    0.000    0.000 
#    0.000    0.000    0.000    0.000    0.000    0.000 
#
# Total GULP energy -223061.313708 kJ/mol
# GULP energy per Si atom -5576.532843 kJ/mol
# Density = 2.104833 g / cm^3
# Si number density = 21.096349 Si / 1000 Ang^3
#
#
#
# Elastic Constant Matrix: (Units=GPa)
#
#
# Indices 1 2 3 4 5 6 
#
# 1 91.9302 44.1773 24.1636 0.0000 0.0000 0.0000
# 2 44.1773 91.9301 24.1637 0.0000 0.0000 0.0000
# 3 24.1636 24.1637 131.6996 0.0000 0.0000 0.0000
# 4 0.0000 0.0000 0.0000 42.1566 0.0000 0.0000
# 5 0.0000 0.0000 0.0000 0.0000 42.1561 0.0000
# 6 0.0000 0.0000 0.0000 0.0000 0.0000 24.1717
#
#
#
# Elastic Compliance Matrix: (Units=1/GPa)
#
#
# Indices 1 2 3 4 5 6 
#
# 1 0.014400 -0.006541 -0.001442 0.000000 0.000000 0.000000
# 2 -0.006541 0.014400 -0.001442 0.000000 0.000000 0.000000
# 3 -0.001442 -0.001442 0.008122 0.000000 0.000000 0.000000
# 4 0.000000 0.000000 0.000000 0.023721 0.000000 0.000000
# 5 0.000000 0.000000 0.000000 0.000000 0.023721 0.000000
# 6 0.000000 0.000000 0.000000 0.000000 0.000000 0.041371
#
#
# Mechanical properties :
#
#
# Convention : Reuss Voigt Hill
#
# Bulk Modulus (GPa) = 55.33241 55.61880 55.47561
# Shear Modulus (GPa) = 33.19842 36.56724 34.88283
#
# Velocity S-wave (km/s) = 3.97124 4.16786 4.07074
# Velocity P-wave (km/s) = 6.87845 7.04151 6.96045
#
# Compressibility (1/GPa) = 0.01807259
#
# Stress axis : x y z
#
# Youngs Moduli (GPa) = 69.44384 69.44366 123.11988
#
# Poissons Ratio (x) = 0.45423 0.17753
# Poissons Ratio (y) = 0.45423 0.17754
# Poissons Ratio (z) = 0.10013 0.10014
#
# Static dielectric constant tensor:
#      x y z
#    x 1.821830 0.000000 0.000000 
#    y 0.000000 1.821830 0.000000 
#    z 0.000000 0.000000 1.755310 
# 
# From -- ./inp_files/15089.got.cif
#   From: 2010.05.17/outbox.cif.g08.bks.cpg/sg91_8_cif.got.tgz:15089.got - 2010.06.03 19:20:03.
