data_PCOD9548576
_publ_section_title
;
Structure prediction by ZEFSAII (Michael W. Deem and Ramdas Pophale) SiO2 
 PCOD9548576
Probable space group: P 41 2 2
;
_chemical_formula_sum "Si O2"
_cell_formula_units_Z 60
_cell_length_a 11.532988
_cell_length_b 11.532988
_cell_length_c 20.052259
_cell_angle_alpha 90.000000
_cell_angle_beta 90.000000
_cell_angle_gamma 90.000000
_cell_volume 2667.147204
_symmetry_space_group_name_H-M "P 41 2 2"
_symmetry_group_IT_number 91
_symmetry_cell_setting 'tetragonal'
loop_
_space_group_symop_operation_xyz
x,y,z
-y,x,1/4+z
-x,-y,1/2+z
y,-x,3/4+z
x,-y,1/2-z
-x,y,-z
y,x,3/4-z
-y,-x,1/4-z
loop_
_atom_site_type_symbol
_atom_site_label
_atom_site_fract_x
_atom_site_fract_y
_atom_site_fract_z
Si Si1 0.787780 0.370527 0.487960
Si Si2 0.532933 0.905060 0.865129
Si Si3 0.609153 0.688630 0.309815
Si Si4 0.074050 0.057106 0.677674
Si Si5 0.103462 0.676983 0.845992
Si Si6 0.314636 0.047708 0.825612
Si Si7 0.427898 0.676277 0.062524
Si Si8 0.500000 0.769447 0.500000
O O1 0.878262 0.425414 0.539947
O O2 0.714739 0.482740 0.465891
O O3 0.841211 0.318856 0.420599
O O4 0.699260 0.294686 0.531955
O O5 0.511097 0.787903 0.905481
O O6 0.640272 0.970615 0.897554
O O7 0.419244 0.984152 0.863094
O O8 0.610705 0.610705 0.375000
O O9 0.665375 0.814573 0.325018
O O10 0.688538 0.610643 0.263796
O O11 0.106930 0.193693 0.684364
O O12 0.048912 0.000000 0.750000
O O13 0.189560 0.993194 0.649421
O O14 0.972115 0.027885 0.625000
O O15 0.155449 0.563647 0.807531
O O16 0.319506 0.000000 0.750000
O O17 0.407970 0.592031 0.125000
O O18 0.500000 0.632381 0.000000
#
# Coordination Sequence:
#
# PCOD9548576 Si02
#       8
#     8   8   8   8   8   8   8   4
#     4  11  24  45  68 108 144 199 243 309 387 462
#     4  11  23  45  72 105 143 198 257 305 381 465
#     4  12  23  43  69 103 150 192 241 307 374 458
#     4  11  28  48  72 110 148 201 258 320 390 453
#     4  12  26  45  76 104 146 195 250 315 381 458
#     4  11  20  42  73 105 144 194 247 308 379 453
#     4  10  26  44  69 103 149 195 248 312 385 459
#     4  12  26  42  70 120 146 190 250 304 394 458
#
# _framework density 22.495947999999999
#
# number of rings (size 3 to 8) (size 9 to 14) (size 15 to 20)
#    0.000    0.800    4.000    2.400    3.733    6.400 
#    0.000    0.000    0.000    0.000    0.000    0.000 
#    0.000    0.000    0.000    0.000    0.000    0.000 
#
# Total GULP energy -334991.431324 kJ/mol
# GULP energy per Si atom -5583.190522 kJ/mol
# Density = 2.244475 g / cm^3
# Si number density = 22.495948 Si / 1000 Ang^3
#
#
#
# Elastic Constant Matrix: (Units=GPa)
#
#
# Indices 1 2 3 4 5 6 
#
# 1 132.1152 -0.1273 15.6702 0.0000 0.0000 0.0000
# 2 -0.1273 132.1154 15.6703 0.0000 0.0000 0.0000
# 3 15.6702 15.6703 82.7706 0.0000 0.0000 0.0000
# 4 0.0000 0.0000 0.0000 25.6004 0.0000 0.0000
# 5 0.0000 0.0000 0.0000 0.0000 25.6004 0.0000
# 6 0.0000 0.0000 0.0000 0.0000 0.0000 136.8561
#
#
#
# Elastic Compliance Matrix: (Units=1/GPa)
#
#
# Indices 1 2 3 4 5 6 
#
# 1 0.007747 0.000186 -0.001502 0.000000 0.000000 0.000000
# 2 0.000186 0.007747 -0.001502 0.000000 0.000000 0.000000
# 3 -0.001502 -0.001502 0.012650 0.000000 0.000000 0.000000
# 4 0.000000 0.000000 0.000000 0.039062 0.000000 0.000000
# 5 0.000000 0.000000 0.000000 0.000000 0.039062 0.000000
# 6 0.000000 0.000000 0.000000 0.000000 0.000000 0.007307
#
#
# Mechanical properties :
#
#
# Convention : Reuss Voigt Hill
#
# Bulk Modulus (GPa) = 44.42704 45.49195 44.95950
# Shear Modulus (GPa) = 39.45853 58.66390 49.06122
#
# Velocity S-wave (km/s) = 4.19266 5.11216 4.67507
# Velocity P-wave (km/s) = 6.57492 7.42373 7.01218
#
# Compressibility (1/GPa) = 0.02250881
#
# Stress axis : x y z
#
# Youngs Moduli (GPa) = 129.07435 129.07452 79.04970
#
# Poissons Ratio (x) = -0.02396 0.11872
# Poissons Ratio (y) = -0.02396 0.11872
# Poissons Ratio (z) = 0.19386 0.19386
#
# Static dielectric constant tensor:
#      x y z
#    x 1.931390 0.000000 0.000000 
#    y 0.000000 1.931390 0.000000 
#    z 0.000000 0.000000 2.137570 
# 
# From -- ./inp_files/21584.got.cif
#   From: 2010.05.17/outbox.cif.g08.bks.cpg/sg91_11_cif.got.tgz:21584.got - 2010.06.03 19:20:03.
