data_PCOD9548173
_publ_section_title
;
Structure prediction by ZEFSAII (Michael W. Deem and Ramdas Pophale) SiO2 
 PCOD9548173
Probable space group: P 41 2 2
;
_chemical_formula_sum "Si O2"
_cell_formula_units_Z 48
_cell_length_a 11.364889
_cell_length_b 11.364889
_cell_length_c 16.313782
_cell_angle_alpha 90.000000
_cell_angle_beta 90.000000
_cell_angle_gamma 90.000000
_cell_volume 2107.099535
_symmetry_space_group_name_H-M "P 41 2 2"
_symmetry_group_IT_number 91
_symmetry_cell_setting 'tetragonal'
loop_
_space_group_symop_operation_xyz
x,y,z
-y,x,1/4+z
-x,-y,1/2+z
y,-x,3/4+z
x,-y,1/2-z
-x,y,-z
y,x,3/4-z
-y,-x,1/4-z
loop_
_atom_site_type_symbol
_atom_site_label
_atom_site_fract_x
_atom_site_fract_y
_atom_site_fract_z
Si Si1 0.161623 0.975792 0.345094
Si Si2 0.597240 0.563401 0.566228
Si Si3 0.572432 0.768071 0.690573
Si Si4 0.011306 0.465579 0.844125
Si Si5 0.994280 0.200757 0.098366
Si Si6 0.344398 0.844885 0.150506
O O1 0.120987 0.849328 0.372741
O O2 0.161298 0.000000 0.250000
O O3 0.273025 0.041895 0.382198
O O4 0.053438 0.053438 0.375000
O O5 0.500000 0.604223 0.500000
O O6 0.536217 0.463784 0.625000
O O7 0.622638 0.671343 0.627596
O O8 0.697518 0.508606 0.507428
O O9 0.510953 0.873925 0.643103
O O10 0.661338 0.833727 0.751315
O O11 0.023246 0.500000 0.750000
O O12 0.014540 0.327218 0.860294
O O13 0.887423 0.525072 0.874764
O O14 0.884785 0.115215 0.125000
O O15 0.000000 0.208849 0.000000
O O16 0.273226 0.726775 0.125000
#
# Coordination Sequence:
#
# PCOD9548173 Si02
#       6
#     8   8   8   8   8   8
#     4  10  21  40  71 100 135 184 243 295 368 443
#     4   9  20  39  72 105 146 196 249 295 369 452
#     4  11  22  45  69 106 147 194 246 314 370 448
#     4  12  29  47  68 110 153 190 260 314 380 461
#     4  11  25  46  78 109 151 195 250 313 386 458
#     4  11  26  47  71 100 145 194 246 308 379 447
#
# _framework density 22.780131999999998
#
# number of rings (size 3 to 8) (size 9 to 14) (size 15 to 20)
#    0.000    1.333    0.000    5.500    7.000    4.667 
#    6.000    0.000    0.000    0.000    0.000    0.000 
#    0.000    0.000    0.000    0.000    0.000    0.000 
#
# Total GULP energy -267763.818863 kJ/mol
# GULP energy per Si atom -5578.412893 kJ/mol
# Density = 2.272828 g / cm^3
# Si number density = 22.780132 Si / 1000 Ang^3
#
#
#
# Elastic Constant Matrix: (Units=GPa)
#
#
# Indices 1 2 3 4 5 6 
#
# 1 105.9570 71.0183 54.7121 0.0000 0.0000 0.0000
# 2 71.0183 105.9583 54.7117 0.0000 0.0000 0.0000
# 3 54.7121 54.7117 166.5749 0.0000 0.0000 0.0000
# 4 0.0000 0.0000 0.0000 43.9341 0.0000 0.0000
# 5 0.0000 0.0000 0.0000 0.0000 43.9328 0.0000
# 6 0.0000 0.0000 0.0000 0.0000 0.0000 -78.3801
#
#
#
# Elastic Compliance Matrix: (Units=1/GPa)
#
#
# Indices 1 2 3 4 5 6 
#
# 1 0.017856 -0.010765 -0.002329 0.000000 0.000000 0.000000
# 2 -0.010765 0.017856 -0.002329 0.000000 0.000000 0.000000
# 3 -0.002329 -0.002329 0.007533 0.000000 0.000000 0.000000
# 4 0.000000 0.000000 0.000000 0.022761 0.000000 0.000000
# 5 0.000000 0.000000 0.000000 0.000000 0.022762 0.000000
# 6 0.000000 0.000000 0.000000 0.000000 0.000000 -0.012758
#
#
# Mechanical properties :
#
#
# Convention : Reuss Voigt Hill
#
# Bulk Modulus (GPa) = 80.65476 82.15271 81.40373
# Shear Modulus (GPa) = 45.04968 15.10056 30.07512
#
# Velocity S-wave (km/s) = 4.45183 2.57744 3.63745
# Velocity P-wave (km/s) = 7.86814 6.70815 7.31119
#
# Compressibility (1/GPa) = 0.01239852
#
# Stress axis : x y z
#
# Youngs Moduli (GPa) = 56.00394 56.00497 132.74673
#
# Poissons Ratio (x) = 0.60291 0.30916
# Poissons Ratio (y) = 0.60290 0.30914
# Poissons Ratio (z) = 0.13043 0.13042
#
# Static dielectric constant tensor:
#      x y z
#    x 1.945480 0.000000 0.000000 
#    y 0.000000 1.945490 0.000000 
#    z 0.000000 0.000000 1.842100 
# 
# From -- ./inp_files/11927.got.cif
#   From: 2010.05.17/outbox.cif.g08.bks.cpg/sg91_6_cif.got.tgz:11927.got - 2010.06.03 19:20:03.
