data_PCOD9548286
_publ_section_title
;
Structure prediction by ZEFSAII (Michael W. Deem and Ramdas Pophale) SiO2 
 PCOD9548286
Probable space group: P 41 2 2
;
_chemical_formula_sum "Si O2"
_cell_formula_units_Z 56
_cell_length_a 13.902233
_cell_length_b 13.902233
_cell_length_c 11.834778
_cell_angle_alpha 90.000000
_cell_angle_beta 90.000000
_cell_angle_gamma 90.000000
_cell_volume 2287.332189
_symmetry_space_group_name_H-M "P 41 2 2"
_symmetry_group_IT_number 91
_symmetry_cell_setting 'tetragonal'
loop_
_space_group_symop_operation_xyz
x,y,z
-y,x,1/4+z
-x,-y,1/2+z
y,-x,3/4+z
x,-y,1/2-z
-x,y,-z
y,x,3/4-z
-y,-x,1/4-z
loop_
_atom_site_type_symbol
_atom_site_label
_atom_site_fract_x
_atom_site_fract_y
_atom_site_fract_z
Si Si1 0.878255 0.455520 0.133182
Si Si2 0.120166 0.741866 0.692028
Si Si3 0.802277 0.216078 0.745763
Si Si4 0.694822 0.601589 0.688022
Si Si5 0.474054 0.334242 0.811452
Si Si6 0.116242 0.031651 0.626178
Si Si7 0.095807 0.349452 0.558477
O O1 0.917714 0.500000 0.250000
O O2 0.912371 0.347951 0.115521
O O3 0.761995 0.458105 0.135495
O O4 0.905040 0.537100 0.046007
O O5 0.210304 0.789697 0.625000
O O6 0.122647 0.688198 0.814505
O O7 0.042888 0.826323 0.704527
O O8 0.829108 0.170893 0.625000
O O9 0.783787 0.326827 0.779296
O O10 0.867075 0.158022 0.835658
O O11 0.691447 0.183867 0.740472
O O12 0.706877 0.500000 0.750000
O O13 0.585808 0.640834 0.711866
O O14 0.690371 0.581122 0.554283
O O15 0.423108 0.423108 0.875000
O O16 0.151696 0.000000 0.750000
O O17 0.004829 0.995172 0.625000
O O18 0.000000 0.309128 0.500000
#
# Coordination Sequence:
#
# PCOD9548286 Si02
#       7
#     8   8   8   8   8   8   8
#     4  10  22  39  65 103 143 186 244 308 376 453
#     4  10  22  43  71 104 138 177 237 315 375 445
#     4  12  26  47  72 102 145 197 244 299 386 468
#     4  12  26  44  65 105 158 207 257 312 365 461
#     4  12  23  39  72 104 146 203 263 313 374 431
#     4  11  26  47  74 106 136 169 237 312 382 453
#     4  11  24  45  68  98 142 187 239 304 380 460
#
# _framework density 24.482669000000001
#
# number of rings (size 3 to 8) (size 9 to 14) (size 15 to 20)
#    0.000    0.857    1.429    6.429    6.000    1.714 
#    0.000    0.714    0.000    0.000    0.000    0.000 
#    0.000    0.000    0.000    0.000    0.000    0.000 
#
# Total GULP energy -311936.044832 kJ/mol
# GULP energy per Si atom -5570.286515 kJ/mol
# Density = 2.442695 g / cm^3
# Si number density = 24.482669 Si / 1000 Ang^3
#
#
#
# Elastic Constant Matrix: (Units=GPa)
#
#
# Indices 1 2 3 4 5 6 
#
# 1 107.7553 38.0641 17.2603 0.0000 0.0000 0.0000
# 2 38.0641 107.7549 17.2607 0.0000 0.0000 0.0000
# 3 17.2603 17.2607 90.7626 0.0000 0.0000 0.0000
# 4 0.0000 0.0000 0.0000 26.2691 0.0000 0.0000
# 5 0.0000 0.0000 0.0000 0.0000 26.2686 0.0000
# 6 0.0000 0.0000 0.0000 0.0000 0.0000 23.0713
#
#
#
# Elastic Compliance Matrix: (Units=1/GPa)
#
#
# Indices 1 2 3 4 5 6 
#
# 1 0.010765 -0.003584 -0.001366 0.000000 0.000000 0.000000
# 2 -0.003584 0.010765 -0.001366 0.000000 0.000000 0.000000
# 3 -0.001366 -0.001366 0.011537 0.000000 0.000000 0.000000
# 4 0.000000 0.000000 0.000000 0.038068 0.000000 0.000000
# 5 0.000000 0.000000 0.000000 0.000000 0.038068 0.000000
# 6 0.000000 0.000000 0.000000 0.000000 0.000000 0.043344
#
#
# Mechanical properties :
#
#
# Convention : Reuss Voigt Hill
#
# Bulk Modulus (GPa) = 48.93130 50.16031 49.54580
# Shear Modulus (GPa) = 29.07149 30.70098 29.88624
#
# Velocity S-wave (km/s) = 3.44965 3.54501 3.49766
# Velocity P-wave (km/s) = 5.99135 6.10645 6.04917
#
# Compressibility (1/GPa) = 0.02043682
#
# Stress axis : x y z
#
# Youngs Moduli (GPa) = 92.89316 92.89270 86.67637
#
# Poissons Ratio (x) = 0.33292 0.11837
# Poissons Ratio (y) = 0.33293 0.11837
# Poissons Ratio (z) = 0.12686 0.12686
#
# Static dielectric constant tensor:
#      x y z
#    x 2.142980 0.000000 0.000000 
#    y 0.000000 2.143000 0.000000 
#    z 0.000000 0.000000 2.429820 
# 
# From -- ./inp_files/15977.got.cif
#   From: 2010.05.17/outbox.cif.g08.bks.cpg/sg91_8_cif.got.tgz:15977.got - 2010.06.03 19:20:03.
