data_PCOD9548139
_publ_section_title
;
Structure prediction by ZEFSAII (Michael W. Deem and Ramdas Pophale) SiO2 
 PCOD9548139
Probable space group: P 41 2 2
;
_chemical_formula_sum "Si O2"
_cell_formula_units_Z 36
_cell_length_a 12.353234
_cell_length_b 12.353234
_cell_length_c 12.346305
_cell_angle_alpha 90.000000
_cell_angle_beta 90.000000
_cell_angle_gamma 90.000000
_cell_volume 1884.075654
_symmetry_space_group_name_H-M "P 41 2 2"
_symmetry_group_IT_number 91
_symmetry_cell_setting 'tetragonal'
loop_
_space_group_symop_operation_xyz
x,y,z
-y,x,1/4+z
-x,-y,1/2+z
y,-x,3/4+z
x,-y,1/2-z
-x,y,-z
y,x,3/4-z
-y,-x,1/4-z
loop_
_atom_site_type_symbol
_atom_site_label
_atom_site_fract_x
_atom_site_fract_y
_atom_site_fract_z
Si Si1 0.518469 0.308211 0.661771
Si Si2 0.112268 0.500000 0.250000
Si Si3 0.842486 0.234528 0.442370
Si Si4 0.942206 0.722090 0.829812
Si Si5 0.424361 0.297043 0.101789
O O1 0.630876 0.369125 0.625000
O O2 0.490697 0.200117 0.596148
O O3 0.515013 0.276943 0.786483
O O4 0.423433 0.394293 0.645300
O O5 0.041212 0.395769 0.278195
O O6 0.786749 0.127546 0.490893
O O7 0.876143 0.292147 0.556641
O O8 0.766565 0.311498 0.370176
O O9 0.950039 0.218749 0.370982
O O10 0.500000 0.271015 0.000000
#
# Coordination Sequence:
#
# PCOD9548139 Si02
#       5
#     8   4   8   8   8
#     4  12  20  35  56  85 131 179 217 257 315 399
#     4  12  20  34  64  88 136 170 222 262 336 400
#     4  10  21  39  62  93 121 162 221 274 330 387
#     4  10  21  39  63  94 120 166 220 277 328 397
#     4  12  23  34  52  91 131 176 213 260 322 401
#
# _framework density 19.107512
#
# number of rings (size 3 to 8) (size 9 to 14) (size 15 to 20)
#    0.000    0.889    6.667    2.000    1.556    0.000 
#    0.000    0.000    0.000    0.000   46.222    0.000 
#    0.000    0.000    0.000    0.000    0.000    0.000 
#
# Total GULP energy -200649.885359 kJ/mol
# GULP energy per Si atom -5573.607927 kJ/mol
# Density = 1.906402 g / cm^3
# Si number density = 19.107512 Si / 1000 Ang^3
#
#
#
# Elastic Constant Matrix: (Units=GPa)
#
#
# Indices 1 2 3 4 5 6 
#
# 1 69.1715 27.7407 26.2944 0.0000 0.0000 0.0000
# 2 27.7407 69.1708 26.2936 0.0000 0.0000 0.0000
# 3 26.2944 26.2936 116.5024 0.0000 0.0000 0.0000
# 4 0.0000 0.0000 0.0000 30.8397 0.0000 0.0000
# 5 0.0000 0.0000 0.0000 0.0000 30.8398 0.0000
# 6 0.0000 0.0000 0.0000 0.0000 0.0000 12.3191
#
#
#
# Elastic Compliance Matrix: (Units=1/GPa)
#
#
# Indices 1 2 3 4 5 6 
#
# 1 0.017948 -0.006189 -0.002654 0.000000 0.000000 0.000000
# 2 -0.006189 0.017948 -0.002654 0.000000 0.000000 0.000000
# 3 -0.002654 -0.002654 0.009781 0.000000 0.000000 0.000000
# 4 0.000000 0.000000 0.000000 0.032426 0.000000 0.000000
# 5 0.000000 0.000000 0.000000 0.000000 0.032426 0.000000
# 6 0.000000 0.000000 0.000000 0.000000 0.000000 0.081175
#
#
# Mechanical properties :
#
#
# Convention : Reuss Voigt Hill
#
# Bulk Modulus (GPa) = 44.08510 46.16690 45.12600
# Shear Modulus (GPa) = 22.49639 26.43412 24.46525
#
# Velocity S-wave (km/s) = 3.43499 3.72350 3.58215
# Velocity P-wave (km/s) = 6.23333 6.53453 6.38570
#
# Compressibility (1/GPa) = 0.02268340
#
# Stress axis : x y z
#
# Youngs Moduli (GPa) = 55.71734 55.71697 102.23425
#
# Poissons Ratio (x) = 0.34483 0.27133
# Poissons Ratio (y) = 0.34484 0.27131
# Poissons Ratio (z) = 0.14787 0.14786
#
# Static dielectric constant tensor:
#      x y z
#    x 1.713150 0.000000 0.000000 
#    y 0.000000 1.713150 0.000000 
#    z 0.000000 0.000000 1.583230 
# 
# From -- ./inp_files/3562.got.cif
#   From: 2010.05.17/outbox.cif.g08.bks.cpg/sg91_2_cif.got.tgz:3562.got - 2010.06.03 19:20:03.
