data_PCOD9548414
_publ_section_title
;
Structure prediction by ZEFSAII (Michael W. Deem and Ramdas Pophale) SiO2 
 PCOD9548414
Probable space group: P 41 2 2
;
_chemical_formula_sum "Si O2"
_cell_formula_units_Z 28
_cell_length_a 6.975269
_cell_length_b 6.975269
_cell_length_c 19.021821
_cell_angle_alpha 90.000000
_cell_angle_beta 90.000000
_cell_angle_gamma 90.000000
_cell_volume 925.494862
_symmetry_space_group_name_H-M "P 41 2 2"
_symmetry_group_IT_number 91
_symmetry_cell_setting 'tetragonal'
loop_
_space_group_symop_operation_xyz
x,y,z
-y,x,1/4+z
-x,-y,1/2+z
y,-x,3/4+z
x,-y,1/2-z
-x,y,-z
y,x,3/4-z
-y,-x,1/4-z
loop_
_atom_site_type_symbol
_atom_site_label
_atom_site_fract_x
_atom_site_fract_y
_atom_site_fract_z
Si Si1 0.628016 0.937259 0.594716
Si Si2 0.500470 0.639559 0.807882
Si Si3 0.210826 0.960278 0.941351
Si Si4 0.305564 0.000000 0.750000
O O1 0.570683 0.713244 0.579742
O O2 0.728894 0.029275 0.525172
O O3 0.417819 0.031671 0.596876
O O4 0.780054 0.907243 0.658783
O O5 0.584419 0.500000 0.750000
O O6 0.636058 0.636058 0.875000
O O7 0.447508 0.832229 0.769741
O O8 0.156265 0.085398 0.807206
#
# Coordination Sequence:
#
# PCOD9548414 Si02
#       4
#     8   8   8   4
#     4  10  22  50  86 136 190 247 319 389 479 572
#     4  11  24  49  87 139 184 244 311 392 472 563
#     4  10  22  46  92 131 187 252 314 399 478 580
#     4  10  22  50  90 136 184 248 318 388 478 576
#
# _framework density 30.254087999999999
#
# number of rings (size 3 to 8) (size 9 to 14) (size 15 to 20)
#    0.000    1.714    5.714    0.000    0.000    9.143 
#    5.143    5.714   12.571    0.000    7.429    0.000 
#    0.000    0.000    0.000    0.000    0.000    0.000 
#
# Total GULP energy -156942.322198 kJ/mol
# GULP energy per Si atom -5605.082936 kJ/mol
# Density = 3.018523 g / cm^3
# Si number density = 30.254088 Si / 1000 Ang^3
#
#
#
# Elastic Constant Matrix: (Units=GPa)
#
#
# Indices 1 2 3 4 5 6 
#
# 1 202.8788 99.6052 102.4801 0.0000 0.0000 0.0000
# 2 99.6052 202.8788 102.4801 0.0000 0.0000 0.0000
# 3 102.4801 102.4801 175.3414 0.0000 0.0000 0.0000
# 4 0.0000 0.0000 0.0000 77.6434 0.0000 0.0000
# 5 0.0000 0.0000 0.0000 0.0000 77.6434 0.0000
# 6 0.0000 0.0000 0.0000 0.0000 0.0000 48.0233
#
#
#
# Elastic Compliance Matrix: (Units=1/GPa)
#
#
# Indices 1 2 3 4 5 6 
#
# 1 0.007578 -0.002105 -0.003199 0.000000 0.000000 0.000000
# 2 -0.002105 0.007578 -0.003199 0.000000 0.000000 0.000000
# 3 -0.003199 -0.003199 0.009443 0.000000 0.000000 0.000000
# 4 0.000000 0.000000 0.000000 0.012879 0.000000 0.000000
# 5 0.000000 0.000000 0.000000 0.000000 0.012879 0.000000
# 6 0.000000 0.000000 0.000000 0.000000 0.000000 0.020823
#
#
# Mechanical properties :
#
#
# Convention : Reuss Voigt Hill
#
# Bulk Modulus (GPa) = 131.69209 132.24776 131.96992
# Shear Modulus (GPa) = 55.11556 59.09760 57.10658
#
# Velocity S-wave (km/s) = 4.27283 4.42450 4.34933
# Velocity P-wave (km/s) = 8.24415 8.36115 8.30285
#
# Compressibility (1/GPa) = 0.00759347
#
# Stress axis : x y z
#
# Youngs Moduli (GPa) = 131.95492 131.95492 105.90180
#
# Poissons Ratio (x) = 0.27772 0.33880
# Poissons Ratio (y) = 0.27772 0.33880
# Poissons Ratio (z) = 0.42214 0.42214
#
# Static dielectric constant tensor:
#      x y z
#    x 2.292840 0.000000 0.000000 
#    y 0.000000 2.292840 0.000000 
#    z 0.000000 0.000000 2.571560 
# 
# From -- ./inp_files/5318.got.cif
#   From: 2010.05.17/outbox.cif.g08.bks.cpg/sg91_3_cif.got.tgz:5318.got - 2010.06.03 19:20:03.
