data_PCOD9548264
_publ_section_title
;
Structure prediction by ZEFSAII (Michael W. Deem and Ramdas Pophale) SiO2 
 PCOD9548264
Probable space group: P 41 2 2
;
_chemical_formula_sum "Si O2"
_cell_formula_units_Z 32
_cell_length_a 10.034195
_cell_length_b 10.034195
_cell_length_c 14.244933
_cell_angle_alpha 90.000000
_cell_angle_beta 90.000000
_cell_angle_gamma 90.000000
_cell_volume 1434.252066
_symmetry_space_group_name_H-M "P 41 2 2"
_symmetry_group_IT_number 91
_symmetry_cell_setting 'tetragonal'
loop_
_space_group_symop_operation_xyz
x,y,z
-y,x,1/4+z
-x,-y,1/2+z
y,-x,3/4+z
x,-y,1/2-z
-x,y,-z
y,x,3/4-z
-y,-x,1/4-z
loop_
_atom_site_type_symbol
_atom_site_label
_atom_site_fract_x
_atom_site_fract_y
_atom_site_fract_z
Si Si1 0.100327 0.633228 0.705883
Si Si2 0.710037 0.295794 0.897773
Si Si3 0.937713 0.120212 0.813257
Si Si4 0.498421 0.848416 0.266572
O O1 0.038505 0.500000 0.750000
O O2 0.242610 0.647763 0.755528
O O3 0.118789 0.612571 0.595054
O O4 0.010965 0.757131 0.736205
O O5 0.828956 0.196515 0.872329
O O6 0.601848 0.257129 0.817111
O O7 0.778443 0.436580 0.924855
O O8 0.883871 0.000000 0.750000
O O9 0.050163 0.050163 0.875000
O O10 0.442550 0.000000 0.250000
#
# Coordination Sequence:
#
# PCOD9548264 Si02
#       4
#     8   8   8   8
#     4  10  22  38  61  96 139 181 226 281 354 429
#     4  11  23  40  66 105 136 186 235 291 357 436
#     4  12  22  36  64 102 141 174 233 293 356 417
#     4  11  22  41  69 103 142 184 238 294 361 430
#
# _framework density 22.311281000000001
#
# number of rings (size 3 to 8) (size 9 to 14) (size 15 to 20)
#    0.000    1.000    5.000    3.000    0.000    0.000 
#    0.000    0.000    0.000   13.500    0.000    0.000 
#    0.000    0.000    0.000    0.000    0.000    0.000 
#
# Total GULP energy -178255.607365 kJ/mol
# GULP energy per Si atom -5570.487730 kJ/mol
# Density = 2.226050 g / cm^3
# Si number density = 22.311281 Si / 1000 Ang^3
#
#
#
# Elastic Constant Matrix: (Units=GPa)
#
#
# Indices 1 2 3 4 5 6 
#
# 1 106.7557 44.8379 31.7001 0.0000 0.0000 0.0000
# 2 44.8379 106.7557 31.7001 0.0000 0.0000 0.0000
# 3 31.7001 31.7001 57.1629 0.0000 0.0000 0.0000
# 4 0.0000 0.0000 0.0000 39.4225 0.0000 0.0000
# 5 0.0000 0.0000 0.0000 0.0000 39.4225 0.0000
# 6 0.0000 0.0000 0.0000 0.0000 0.0000 -29.6041
#
#
#
# Elastic Compliance Matrix: (Units=1/GPa)
#
#
# Indices 1 2 3 4 5 6 
#
# 1 0.012369 -0.003781 -0.004763 0.000000 0.000000 0.000000
# 2 -0.003781 0.012369 -0.004763 0.000000 0.000000 0.000000
# 3 -0.004763 -0.004763 0.022776 0.000000 0.000000 0.000000
# 4 0.000000 0.000000 0.000000 0.025366 0.000000 0.000000
# 5 0.000000 0.000000 0.000000 0.000000 0.025366 0.000000
# 6 0.000000 0.000000 0.000000 0.000000 0.000000 -0.033779
#
#
# Mechanical properties :
#
#
# Convention : Reuss Voigt Hill
#
# Bulk Modulus (GPa) = 47.84205 54.12782 50.98494
# Shear Modulus (GPa) = 50.99476 20.67726 35.83601
#
# Velocity S-wave (km/s) = 4.78599 3.04758 4.01207
# Velocity P-wave (km/s) = 7.21321 6.05777 6.66059
#
# Compressibility (1/GPa) = 0.02090211
#
# Stress axis : x y z
#
# Youngs Moduli (GPa) = 80.84411 80.84411 43.90516
#
# Poissons Ratio (x) = 0.30567 0.20911
# Poissons Ratio (y) = 0.30567 0.20911
# Poissons Ratio (z) = 0.38505 0.38505
#
# Static dielectric constant tensor:
#      x y z
#    x 1.870020 0.000000 0.000000 
#    y 0.000000 1.870020 0.000000 
#    z 0.000000 0.000000 1.893950 
# 
# From -- ./inp_files/11191.got.cif
#   From: 2010.05.17/outbox.cif.g08.bks.cpg/sg91_6_cif.got.tgz:11191.got - 2010.06.03 19:20:03.
