data_PCOD9548803
_publ_section_title
;
Structure prediction by ZEFSAII (Michael W. Deem and Ramdas Pophale) SiO2 
 PCOD9548803
Probable space group: P 41 2 2
;
_chemical_formula_sum "Si O2"
_cell_formula_units_Z 24
_cell_length_a 14.038544
_cell_length_b 14.038544
_cell_length_c 5.035491
_cell_angle_alpha 90.000000
_cell_angle_beta 90.000000
_cell_angle_gamma 90.000000
_cell_volume 992.398180
_symmetry_space_group_name_H-M "P 41 2 2"
_symmetry_group_IT_number 91
_symmetry_cell_setting 'tetragonal'
loop_
_space_group_symop_operation_xyz
x,y,z
-y,x,1/4+z
-x,-y,1/2+z
y,-x,3/4+z
x,-y,1/2-z
-x,y,-z
y,x,3/4-z
-y,-x,1/4-z
loop_
_atom_site_type_symbol
_atom_site_label
_atom_site_fract_x
_atom_site_fract_y
_atom_site_fract_z
Si Si1 0.896596 0.103405 0.125000
Si Si2 0.306494 0.693507 0.125000
Si Si3 0.567826 0.000000 0.250000
Si Si4 0.103496 0.303048 0.630902
Si Si5 0.395568 0.395568 0.875000
O O1 0.886055 0.190908 0.321528
O O2 0.888102 0.000000 0.250000
O O3 0.327649 0.801049 0.224872
O O4 0.327454 0.627325 0.378216
O O5 0.500000 0.024524 0.500000
O O6 0.635381 0.913454 0.350719
O O7 0.000000 0.315129 0.500000
O O8 0.384924 0.500000 0.750000
#
# Coordination Sequence:
#
# PCOD9548803 Si02
#       5
#     4   4   4   8   4
#     4  12  23  43  78 119 159 220 270 326 408 472
#     4  12  29  49  88 127 161 218 276 332 414 506
#     4  12  28  52  80 108 164 228 274 332 402 476
#     4  12  27  51  78 120 173 216 268 339 391 497
#     4  12  28  58  90 122 160 206 276 364 434 492
#
# _framework density 24.18384
#
# number of rings (size 3 to 8) (size 9 to 14) (size 15 to 20)
#    0.000    0.000    3.333    6.000    4.667    1.333 
#    6.000    1.667    0.000    0.000    0.000    0.000 
#    0.000    0.000    0.000    0.000    0.000    0.000 
#
# Total GULP energy -134417.548419 kJ/mol
# GULP energy per Si atom -5600.731184 kJ/mol
# Density = 2.412880 g / cm^3
# Si number density = 24.183840 Si / 1000 Ang^3
#
#
#
# Elastic Constant Matrix: (Units=GPa)
#
#
# Indices 1 2 3 4 5 6 
#
# 1 190.3151 47.6396 94.7227 0.0000 0.0000 0.0000
# 2 47.6396 190.3168 94.7234 0.0000 0.0000 0.0000
# 3 94.7227 94.7234 189.7254 0.0000 0.0000 0.0000
# 4 0.0000 0.0000 0.0000 64.0014 0.0000 0.0000
# 5 0.0000 0.0000 0.0000 0.0000 64.0012 0.0000
# 6 0.0000 0.0000 0.0000 0.0000 0.0000 25.9662
#
#
#
# Elastic Compliance Matrix: (Units=1/GPa)
#
#
# Indices 1 2 3 4 5 6 
#
# 1 0.006992 -0.000017 -0.003482 0.000000 0.000000 0.000000
# 2 -0.000017 0.006992 -0.003482 0.000000 0.000000 0.000000
# 3 -0.003482 -0.003482 0.008748 0.000000 0.000000 0.000000
# 4 0.000000 0.000000 0.000000 0.015625 0.000000 0.000000
# 5 0.000000 0.000000 0.000000 0.000000 0.015625 0.000000
# 6 0.000000 0.000000 0.000000 0.000000 0.000000 0.038512
#
#
# Mechanical properties :
#
#
# Convention : Reuss Voigt Hill
#
# Bulk Modulus (GPa) = 114.04480 116.05874 115.05177
# Shear Modulus (GPa) = 45.71277 53.01186 49.36231
#
# Velocity S-wave (km/s) = 4.35238 4.68700 4.52279
# Velocity P-wave (km/s) = 8.51572 8.79687 8.65744
#
# Compressibility (1/GPa) = 0.00876848
#
# Stress axis : x y z
#
# Youngs Moduli (GPa) = 143.02276 143.02377 114.31251
#
# Poissons Ratio (x) = 0.00243 0.39807
# Poissons Ratio (y) = 0.00243 0.39807
# Poissons Ratio (z) = 0.49805 0.49805
#
# Static dielectric constant tensor:
#      x y z
#    x 1.884060 0.000000 0.000000 
#    y 0.000000 1.884060 0.000000 
#    z 0.000000 0.000000 2.022990 
# 
# From -- ./inp_files/13871.got.cif
#   From: 2010.05.17/outbox.cif.g08.bks.cpg/sg91_7_cif.got.tgz:13871.got - 2010.06.03 19:20:03.
