data_PCOD9548884
_publ_section_title
;
Structure prediction by ZEFSAII (Michael W. Deem and Ramdas Pophale) SiO2 
 PCOD9548884
Probable space group: P 41 21 2
;
_chemical_formula_sum "Si O2"
_cell_formula_units_Z 48
_cell_length_a 14.367103
_cell_length_b 14.367103
_cell_length_c 10.539498
_cell_angle_alpha 90.000000
_cell_angle_beta 90.000000
_cell_angle_gamma 90.000000
_cell_volume 2175.496237
_symmetry_space_group_name_H-M "P 41 21 2"
_symmetry_group_IT_number 92
_symmetry_cell_setting 'tetragonal'
loop_
_space_group_symop_operation_xyz
x,y,z
1/2-y,1/2+x,1/4+z
-x,-y,1/2+z
1/2+y,1/2-x,3/4+z
1/2+x,1/2-y,3/4-z
1/2-x,1/2+y,1/4-z
y,x,-z
-y,-x,1/2-z
loop_
_atom_site_type_symbol
_atom_site_label
_atom_site_fract_x
_atom_site_fract_y
_atom_site_fract_z
Si Si1 0.523694 0.742767 0.329921
Si Si2 0.260563 0.530136 0.906847
Si Si3 0.475937 0.936771 0.681000
Si Si4 0.571704 0.571704 0.000000
Si Si5 0.920725 0.286012 0.189398
Si Si6 0.208764 0.208764 0.500000
Si Si7 0.465065 0.534936 0.250000
Si Si8 0.355280 0.355280 0.000000
O O1 0.461548 0.776828 0.447678
O O2 0.534634 0.796817 0.199702
O O3 0.482787 0.640515 0.297397
O O4 0.626042 0.724677 0.395407
O O5 0.172700 0.500402 0.822370
O O6 0.296958 0.625448 0.850029
O O7 0.337396 0.449196 0.919000
O O8 0.526385 0.991259 0.791346
O O9 0.366920 0.948504 0.714916
O O10 0.556133 0.682684 0.011453
O O11 0.531713 0.526426 0.127996
O O12 0.808768 0.293694 0.181153
#
# Coordination Sequence:
#
# PCOD9548884 Si02
#       8
#     8   8   8   4   8   4   4   4
#     4   9  19  37  59  94 140 169 219 261 344 397
#     4   9  21  41  62 100 132 174 218 280 335 420
#     4  11  26  45  72  96 121 172 236 287 345 398
#     4   9  19  36  64  93 143 175 221 268 332 415
#     4   9  20  41  64  93 132 178 221 283 342 397
#     4   9  18  39  65  94 131 173 233 270 330 413
#     4  10  18  33  52 100 125 182 214 256 324 410
#     4   8  19  34  59  95 131 176 208 264 346 394
#
# _framework density 22.063931
#
# number of rings (size 3 to 8) (size 9 to 14) (size 15 to 20)
#    1.000    1.667    0.000    0.500    2.333    6.000 
#   15.000    0.000    0.000    0.000    0.000    0.000 
#    0.000    0.000    0.000    0.000    0.000    0.000 
#
# Total GULP energy -267474.099763 kJ/mol
# GULP energy per Si atom -5572.377078 kJ/mol
# Density = 2.201371 g / cm^3
# Si number density = 22.063931 Si / 1000 Ang^3
#
#
#
# Elastic Constant Matrix: (Units=GPa)
#
#
# Indices 1 2 3 4 5 6 
#
# 1 -1046.5140 1144.3542 39.8722 0.0000 0.0000 0.0000
# 2 1144.3542-1046.5112 39.8143 0.0000 0.0000 0.0000
# 3 39.8722 39.8143 149.3048 0.0000 0.0000 0.0000
# 4 0.0000 0.0000 0.0000 33.1965 0.0000 0.0000
# 5 0.0000 0.0000 0.0000 0.0000 33.1965 0.0000
# 6 0.0000 0.0000 0.0000 0.0000 0.0000 25.4484
#
#
#
# Elastic Compliance Matrix: (Units=1/GPa)
#
#
# Indices 1 2 3 4 5 6 
#
# 1 0.006301 0.006758 -0.003485 0.000000 0.000000 0.000000
# 2 0.006758 0.006301 -0.003485 0.000000 0.000000 0.000000
# 3 -0.003485 -0.003485 0.008558 0.000000 0.000000 0.000000
# 4 0.000000 0.000000 0.000000 0.030124 0.000000 0.000000
# 5 0.000000 0.000000 0.000000 0.000000 0.030124 0.000000
# 6 0.000000 0.000000 0.000000 0.000000 0.000000 0.039295
#
#
# Mechanical properties :
#
#
# Convention : Reuss Voigt Hill
#
# Bulk Modulus (GPa) = 48.22565 56.04010 52.13288
# Shear Modulus (GPa) = 39.05071 -192.81580 -76.88255
#
# Velocity S-wave (km/s) = 4.21157 -9.35838 -5.90940
# Velocity P-wave (km/s) = 6.74940 9.55606 4.78351
#
# Compressibility (1/GPa) = 0.02073585
#
# Stress axis : x y z
#
# Youngs Moduli (GPa) = 158.70268 158.69763 116.85469
#
# Poissons Ratio (x) = -1.07242 0.40721
# Poissons Ratio (y) = -1.07245 0.40724
# Poissons Ratio (z) = 0.55304 0.55306
#
# Static dielectric constant tensor:
#      x y z
#    x 1.820990 0.000000 0.000000 
#    y 0.000000 1.820980 0.000000 
#    z 0.000000 0.000000 1.842400 
# 
# From -- ./inp_files/2241.got.cif
#   From: 2010.05.17/outbox.cif.g08.bks.cpg/sg92_2_cif.got.tgz:2241.got - 2010.06.03 19:35:17.
