data_PCOD9549472
_publ_section_title
;
Structure prediction by ZEFSAII (Michael W. Deem and Ramdas Pophale) SiO2 
 PCOD9549472
Probable space group: P 41 21 2
;
_chemical_formula_sum "Si O2"
_cell_formula_units_Z 24
_cell_length_a 14.168102
_cell_length_b 14.168102
_cell_length_c 5.087383
_cell_angle_alpha 90.000000
_cell_angle_beta 90.000000
_cell_angle_gamma 90.000000
_cell_volume 1021.216408
_symmetry_space_group_name_H-M "P 41 21 2"
_symmetry_group_IT_number 92
_symmetry_cell_setting 'tetragonal'
loop_
_space_group_symop_operation_xyz
x,y,z
1/2-y,1/2+x,1/4+z
-x,-y,1/2+z
1/2+y,1/2-x,3/4+z
1/2+x,1/2-y,3/4-z
1/2-x,1/2+y,1/4-z
y,x,-z
-y,-x,1/2-z
loop_
_atom_site_type_symbol
_atom_site_label
_atom_site_fract_x
_atom_site_fract_y
_atom_site_fract_z
Si Si1 0.415561 0.117992 0.927230
Si Si2 0.382224 0.226828 0.441341
Si Si3 0.877282 0.959846 0.251534
O O1 0.391528 0.199022 0.137134
O O2 0.390728 0.024039 0.087277
O O3 0.368964 0.140711 0.645334
O O4 0.298369 0.298369 0.500000
O O5 0.479102 0.282662 0.509694
O O6 0.893955 0.893955 0.500000
O O7 0.895185 0.895185 0.000000
O O8 0.960655 0.039346 0.250000
#
# Coordination Sequence:
#
# PCOD9549472 Si02
#       3
#     8   8   8
#     4  12  25  46  70  92 127 180 229 263 316 398
#     4  11  23  42  69 100 133 167 216 284 340 382
#     4   9  17  32  56  88 128 171 207 247 321 408
#
# _framework density 23.501384999999999
#
# number of rings (size 3 to 8) (size 9 to 14) (size 15 to 20)
#    0.000    1.333    0.000    7.000    0.000    5.333 
#    0.000   16.667    0.000    0.000    0.000    0.000 
#    0.000    0.000    0.000    0.000    0.000    0.000 
#
# Total GULP energy -134228.737898 kJ/mol
# GULP energy per Si atom -5592.864079 kJ/mol
# Density = 2.344789 g / cm^3
# Si number density = 23.501385 Si / 1000 Ang^3
#
#
#
# Elastic Constant Matrix: (Units=GPa)
#
#
# Indices 1 2 3 4 5 6 
#
# 1 1.4378 89.0360 25.4878 0.0000 0.0000 0.0000
# 2 89.0360 1.4372 25.4870 0.0000 0.0000 0.0000
# 3 25.4878 25.4870 176.1283 0.0000 0.0000 0.0000
# 4 0.0000 0.0000 0.0000 47.0054 0.0000 0.0000
# 5 0.0000 0.0000 0.0000 0.0000 47.0057 0.0000
# 6 0.0000 0.0000 0.0000 0.0000 0.0000 26.6348
#
#
#
# Elastic Compliance Matrix: (Units=1/GPa)
#
#
# Indices 1 2 3 4 5 6 
#
# 1 0.000309 0.011725 -0.001741 0.000000 0.000000 0.000000
# 2 0.011725 0.000309 -0.001741 0.000000 0.000000 0.000000
# 3 -0.001741 -0.001741 0.006182 0.000000 0.000000 0.000000
# 4 0.000000 0.000000 0.000000 0.021274 0.000000 0.000000
# 5 0.000000 0.000000 0.000000 0.000000 0.021274 0.000000
# 6 0.000000 0.000000 0.000000 0.000000 0.000000 0.037545
#
#
# Mechanical properties :
#
#
# Convention : Reuss Voigt Hill
#
# Bulk Modulus (GPa) = 42.94769 51.00277 46.97523
# Shear Modulus (GPa) = 63.96274 26.72867 45.34570
#
# Velocity S-wave (km/s) = 5.22261 3.37608 4.39736
# Velocity P-wave (km/s) = 7.39471 6.07835 6.76861
#
# Compressibility (1/GPa) = 0.02328414
#
# Stress axis : x y z
#
# Youngs Moduli (GPa) = 3233.85696 3234.35863 161.76810
#
# Poissons Ratio (x) = -37.92259 0.28171
# Poissons Ratio (y) = -37.91671 0.28171
# Poissons Ratio (z) = 5.63153 5.63254
#
# Static dielectric constant tensor:
#      x y z
#    x 1.907230 0.000000 0.000000 
#    y 0.000000 1.907230 0.000000 
#    z 0.000000 0.000000 1.792990 
# 
# From -- ./inp_files/135.got.cif
#   From: 2010.05.17/outbox.cif.g08.bks.cpg/sg92_1_cif.got.tgz:135.got - 2010.06.03 19:35:17.
