data_PCOD9549823
_publ_section_title
;
Structure prediction by ZEFSAII (Michael W. Deem and Ramdas Pophale) SiO2 
 PCOD9549823
Probable space group: P 42 2 2
;
_chemical_formula_sum "Si O2"
_cell_formula_units_Z 38
_cell_length_a 11.135347
_cell_length_b 11.135347
_cell_length_c 13.855188
_cell_angle_alpha 90.000000
_cell_angle_beta 90.000000
_cell_angle_gamma 90.000000
_cell_volume 1717.987237
_symmetry_space_group_name_H-M "P 42 2 2"
_symmetry_group_IT_number 93
_symmetry_cell_setting 'tetragonal'
loop_
_space_group_symop_operation_xyz
x,y,z
-y,x,1/2+z
-x,-y,z
y,-x,1/2+z
x,-y,-z
-x,y,-z
y,x,1/2-z
-y,-x,1/2-z
loop_
_atom_site_type_symbol
_atom_site_label
_atom_site_fract_x
_atom_site_fract_y
_atom_site_fract_z
Si Si1 0.212502 0.708006 0.853369
Si Si2 0.816672 0.209475 0.147009
Si Si3 0.684260 0.439890 0.159196
Si Si4 0.861392 0.359823 0.491800
Si Si5 0.000000 0.245067 0.000000
Si Si6 0.500000 0.500000 0.000000
O O1 0.220563 0.779438 0.750000
O O2 0.269439 0.576413 0.834853
O O3 0.296350 0.781351 0.927365
O O4 0.087233 0.695041 0.916290
O O5 0.843342 0.156659 0.250000
O O6 0.800605 0.353797 0.148081
O O7 0.684477 0.173240 0.114173
O O8 0.908168 0.171746 0.065501
O O9 0.608855 0.391146 0.250000
O O10 0.591977 0.430100 0.069531
O O11 0.848388 0.500000 0.500000
O O12 0.000000 0.326371 0.500000
#
# Coordination Sequence:
#
# PCOD9549823 Si02
#       6
#     8   8   8   8   4   2
#     4  11  25  43  70 101 141 179 233 293 353 425
#     4  10  24  42  68  97 138 175 227 287 347 421
#     4  11  25  38  62 106 136 182 220 273 355 429
#     4  10  24  44  68  95 131 182 234 283 353 431
#     4  10  24  47  69 102 134 182 237 281 352 424
#     4  12  18  32  60  80 146 168 206 260 318 404
#
# _framework density 22.118908000000001
#
# number of rings (size 3 to 8) (size 9 to 14) (size 15 to 20)
#    0.000    1.474    0.000    4.105   14.737    1.684 
#    0.000    8.421    0.000    0.000    0.000    0.000 
#    0.000    0.000    0.000    0.000    0.000    0.000 
#
# Total GULP energy -211907.353668 kJ/mol
# GULP energy per Si atom -5576.509307 kJ/mol
# Density = 2.206856 g / cm^3
# Si number density = 22.118908 Si / 1000 Ang^3
#
#
#
# Elastic Constant Matrix: (Units=GPa)
#
#
# Indices 1 2 3 4 5 6 
#
# 1 81.7327 30.4437 29.7920 0.0000 0.0000 0.0000
# 2 30.4437 81.7325 29.7920 0.0000 0.0000 0.0000
# 3 29.7920 29.7920 165.4039 0.0000 0.0000 0.0000
# 4 0.0000 0.0000 0.0000 30.5090 0.0000 0.0000
# 5 0.0000 0.0000 0.0000 0.0000 30.5090 0.0000
# 6 0.0000 0.0000 0.0000 0.0000 0.0000 1.4459
#
#
#
# Elastic Compliance Matrix: (Units=1/GPa)
#
#
# Indices 1 2 3 4 5 6 
#
# 1 0.014677 -0.004820 -0.001776 0.000000 0.000000 0.000000
# 2 -0.004820 0.014678 -0.001776 0.000000 0.000000 0.000000
# 3 -0.001776 -0.001776 0.006685 0.000000 0.000000 0.000000
# 4 0.000000 0.000000 0.000000 0.032777 0.000000 0.000000
# 5 0.000000 0.000000 0.000000 0.000000 0.032777 0.000000
# 6 0.000000 0.000000 0.000000 0.000000 0.000000 0.691622
#
#
# Mechanical properties :
#
#
# Convention : Reuss Voigt Hill
#
# Bulk Modulus (GPa) = 51.81730 56.54717 54.18223
# Shear Modulus (GPa) = 6.12451 28.41554 17.27002
#
# Velocity S-wave (km/s) = 1.66581 3.58812 2.79728
# Velocity P-wave (km/s) = 5.21320 6.54116 5.91457
#
# Compressibility (1/GPa) = 0.01929858
#
# Stress axis : x y z
#
# Youngs Moduli (GPa) = 68.13152 68.13128 149.57953
#
# Poissons Ratio (x) = 0.32839 0.26558
# Poissons Ratio (y) = 0.32839 0.26558
# Poissons Ratio (z) = 0.12097 0.12097
#
# Static dielectric constant tensor:
#      x y z
#    x 1.888580 0.000000 0.000000 
#    y 0.000000 1.888580 0.000000 
#    z 0.000000 0.000000 1.849690 
# 
# From -- ./inp_files/4424.got.cif
#   From: 2010.05.17/outbox.cif.g08.bks.cpg/sg93_3_cif.got.tgz:4424.got - 2010.06.03 19:38:44.
