data_PCOD9549210
_publ_section_title
;
Structure prediction by ZEFSAII (Michael W. Deem and Ramdas Pophale) SiO2 
 PCOD9549210
Probable space group: P 41 21 2
;
_chemical_formula_sum "Si O2"
_cell_formula_units_Z 56
_cell_length_a 14.801148
_cell_length_b 14.801148
_cell_length_c 12.366554
_cell_angle_alpha 90.000000
_cell_angle_beta 90.000000
_cell_angle_gamma 90.000000
_cell_volume 2709.190230
_symmetry_space_group_name_H-M "P 41 21 2"
_symmetry_group_IT_number 92
_symmetry_cell_setting 'tetragonal'
loop_
_space_group_symop_operation_xyz
x,y,z
1/2-y,1/2+x,1/4+z
-x,-y,1/2+z
1/2+y,1/2-x,3/4+z
1/2+x,1/2-y,3/4-z
1/2-x,1/2+y,1/4-z
y,x,-z
-y,-x,1/2-z
loop_
_atom_site_type_symbol
_atom_site_label
_atom_site_fract_x
_atom_site_fract_y
_atom_site_fract_z
Si Si1 0.060802 0.852623 0.652735
Si Si2 0.465672 0.335099 0.931503
Si Si3 0.788441 0.435524 0.397813
Si Si4 0.036339 0.036339 0.000000
Si Si5 0.302493 0.918444 0.536639
Si Si6 0.248947 0.835113 0.011759
Si Si7 0.732669 0.432003 0.054358
Si Si8 0.674819 0.325182 0.250000
O O1 0.127913 0.872088 0.750000
O O2 0.092621 0.768988 0.582542
O O3 0.047919 0.941710 0.578691
O O4 0.966838 0.828059 0.707370
O O5 0.521706 0.381508 0.833971
O O6 0.389211 0.271425 0.873350
O O7 0.411497 0.411497 0.000000
O O8 0.532771 0.282336 0.011495
O O9 0.795544 0.517327 0.316071
O O10 0.878666 0.402425 0.453699
O O11 0.762969 0.349952 0.319181
O O12 0.235382 0.833923 0.510375
O O13 0.282489 0.981029 0.641947
O O14 0.346571 0.790765 0.989251
O O15 0.673375 0.397148 0.154798
#
# Coordination Sequence:
#
# PCOD9549210 Si02
#       8
#     8   8   8   4   8   8   8   4
#     4  11  23  40  64  97 136 168 219 289 340 407
#     4  11  23  45  66  96 142 184 227 294 355 423
#     4  11  24  45  69 100 137 180 233 293 346 427
#     4  10  24  37  60 102 136 168 221 284 350 422
#     4  11  24  44  72 101 132 183 235 287 355 412
#     4  11  24  46  67  98 135 182 230 282 356 416
#     4  11  24  40  70 100 130 181 225 285 345 410
#     4  10  22  37  74  98 124 174 225 278 346 412
#
# _framework density 20.670383000000001
#
# number of rings (size 3 to 8) (size 9 to 14) (size 15 to 20)
#    0.000    1.143    4.286    1.286    5.000    1.143 
#    9.000    0.000    0.000    0.000    0.000    0.000 
#    0.000    0.000    0.000    0.000    0.000    0.000 
#
# Total GULP energy -311919.062353 kJ/mol
# GULP energy per Si atom -5569.983256 kJ/mol
# Density = 2.062334 g / cm^3
# Si number density = 20.670383 Si / 1000 Ang^3
#
#
#
# Elastic Constant Matrix: (Units=GPa)
#
#
# Indices 1 2 3 4 5 6 
#
# 1 55.6821 44.6090 32.3928 0.0000 0.0000 0.0000
# 2 44.6090 55.6817 32.3926 0.0000 0.0000 0.0000
# 3 32.3928 32.3926 110.6329 0.0000 0.0000 0.0000
# 4 0.0000 0.0000 0.0000 20.6011 0.0000 0.0000
# 5 0.0000 0.0000 0.0000 0.0000 20.6008 0.0000
# 6 0.0000 0.0000 0.0000 0.0000 0.0000 55.2916
#
#
#
# Elastic Compliance Matrix: (Units=1/GPa)
#
#
# Indices 1 2 3 4 5 6 
#
# 1 0.051304 -0.039007 -0.003600 0.000000 0.000000 0.000000
# 2 -0.039007 0.051304 -0.003600 0.000000 0.000000 0.000000
# 3 -0.003600 -0.003600 0.011147 0.000000 0.000000 0.000000
# 4 0.000000 0.000000 0.000000 0.048541 0.000000 0.000000
# 5 0.000000 0.000000 0.000000 0.000000 0.048542 0.000000
# 6 0.000000 0.000000 0.000000 0.000000 0.000000 0.018086
#
#
# Mechanical properties :
#
#
# Convention : Reuss Voigt Hill
#
# Bulk Modulus (GPa) = 46.86230 48.97617 47.91923
# Shear Modulus (GPa) = 15.22289 26.80551 21.01420
#
# Velocity S-wave (km/s) = 2.71672 3.60503 3.19193
# Velocity P-wave (km/s) = 5.70624 6.40887 6.06774
#
# Compressibility (1/GPa) = 0.02133912
#
# Stress axis : x y z
#
# Youngs Moduli (GPa) = 19.49176 19.49167 89.70806
#
# Poissons Ratio (x) = 0.76031 0.32299
# Poissons Ratio (y) = 0.76032 0.32298
# Poissons Ratio (z) = 0.07018 0.07018
#
# Static dielectric constant tensor:
#      x y z
#    x 1.789080 0.000000 0.000000 
#    y 0.000000 1.789080 0.000000 
#    z 0.000000 0.000000 1.757230 
# 
# From -- ./inp_files/2308.got.cif
#   From: 2010.05.17/outbox.cif.g08.bks.cpg/sg92_2_cif.got.tgz:2308.got - 2010.06.03 19:35:17.
