data_PCOD9549264
_publ_section_title
;
Structure prediction by ZEFSAII (Michael W. Deem and Ramdas Pophale) SiO2 
 PCOD9549264
Probable space group: P 41 21 2
;
_chemical_formula_sum "Si O2"
_cell_formula_units_Z 32
_cell_length_a 9.081218
_cell_length_b 9.081218
_cell_length_c 15.137560
_cell_angle_alpha 90.000000
_cell_angle_beta 90.000000
_cell_angle_gamma 90.000000
_cell_volume 1248.372175
_symmetry_space_group_name_H-M "P 41 21 2"
_symmetry_group_IT_number 92
_symmetry_cell_setting 'tetragonal'
loop_
_space_group_symop_operation_xyz
x,y,z
1/2-y,1/2+x,1/4+z
-x,-y,1/2+z
1/2+y,1/2-x,3/4+z
1/2+x,1/2-y,3/4-z
1/2-x,1/2+y,1/4-z
y,x,-z
-y,-x,1/2-z
loop_
_atom_site_type_symbol
_atom_site_label
_atom_site_fract_x
_atom_site_fract_y
_atom_site_fract_z
Si Si1 0.653920 0.142056 0.690301
Si Si2 0.016508 0.638759 0.728257
Si Si3 0.198381 0.990741 0.594223
Si Si4 0.949331 0.120865 0.939237
O O1 0.468889 0.259646 0.884659
O O2 0.574448 0.211653 0.602429
O O3 0.515472 0.064702 0.740207
O O4 0.173389 0.591313 0.692534
O O5 0.045546 0.745517 0.809542
O O6 0.041854 0.073464 0.599646
O O7 0.171728 0.865014 0.518166
O O8 0.777438 0.222563 0.750000
O O9 0.093318 0.093318 0.000000
#
# Coordination Sequence:
#
# PCOD9549264 Si02
#       4
#     8   8   8   8
#     4  11  25  41  68 108 146 186 241 316 362 443
#     4  10  22  42  70 100 133 186 250 294 369 441
#     4   8  20  41  67  91 129 183 232 292 361 444
#     4   8  21  42  62  95 138 179 228 296 378 431
#
# _framework density 25.633379000000001
#
# number of rings (size 3 to 8) (size 9 to 14) (size 15 to 20)
#    1.500    1.000    0.000    0.000    7.000    7.000 
#    0.000    2.500    0.000    0.000    0.000    0.000 
#    0.000    0.000    0.000    0.000    0.000    0.000 
#
# Total GULP energy -178234.365345 kJ/mol
# GULP energy per Si atom -5569.823917 kJ/mol
# Density = 2.557504 g / cm^3
# Si number density = 25.633379 Si / 1000 Ang^3
#
#
#
# Elastic Constant Matrix: (Units=GPa)
#
#
# Indices 1 2 3 4 5 6 
#
# 1 119.2119 -2.7936 70.1029 0.0000 0.0000 0.0000
# 2 -2.7936 119.2120 70.0997 0.0000 0.0000 0.0000
# 3 70.1029 70.0997 170.0392 0.0000 0.0000 0.0000
# 4 0.0000 0.0000 0.0000 94.6703 0.0000 0.0000
# 5 0.0000 0.0000 0.0000 0.0000 94.6767 0.0000
# 6 0.0000 0.0000 0.0000 0.0000 0.0000 37.2956
#
#
#
# Elastic Compliance Matrix: (Units=1/GPa)
#
#
# Indices 1 2 3 4 5 6 
#
# 1 0.012628 0.004432 -0.007033 0.000000 0.000000 0.000000
# 2 0.004432 0.012628 -0.007033 0.000000 0.000000 0.000000
# 3 -0.007033 -0.007033 0.011680 0.000000 0.000000 0.000000
# 4 0.000000 0.000000 0.000000 0.010563 0.000000 0.000000
# 5 0.000000 0.000000 0.000000 0.000000 0.010562 0.000000
# 6 0.000000 0.000000 0.000000 0.000000 0.000000 0.026813
#
#
# Mechanical properties :
#
#
# Convention : Reuss Voigt Hill
#
# Bulk Modulus (GPa) = 56.60293 75.92013 66.26153
# Shear Modulus (GPa) = 45.44118 63.39878 54.41998
#
# Velocity S-wave (km/s) = 4.21495 4.97861 4.61261
# Velocity P-wave (km/s) = 6.76886 7.92028 7.36710
#
# Compressibility (1/GPa) = 0.01766693
#
# Stress axis : x y z
#
# Youngs Moduli (GPa) = 79.18766 79.19012 85.61613
#
# Poissons Ratio (x) = -0.35095 0.60216
# Poissons Ratio (y) = -0.35093 0.60214
# Poissons Ratio (z) = 0.55695 0.55694
#
# Static dielectric constant tensor:
#      x y z
#    x 1.778040 0.000000 0.000000 
#    y 0.000000 1.777970 0.000000 
#    z 0.000000 0.000000 1.709350 
# 
# From -- ./inp_files/1917.got.cif
#   From: 2010.05.17/outbox.cif.g08.bks.cpg/sg92_1_cif.got.tgz:1917.got - 2010.06.03 19:35:17.
