data_PCOD9549867
_publ_section_title
;
Structure prediction by ZEFSAII (Michael W. Deem and Ramdas Pophale) SiO2 
 PCOD9549867
Probable space group: P 42 2 2
;
_chemical_formula_sum "Si O2"
_cell_formula_units_Z 56
_cell_length_a 14.897595
_cell_length_b 14.897595
_cell_length_c 11.652273
_cell_angle_alpha 90.000000
_cell_angle_beta 90.000000
_cell_angle_gamma 90.000000
_cell_volume 2586.086089
_symmetry_space_group_name_H-M "P 42 2 2"
_symmetry_group_IT_number 93
_symmetry_cell_setting 'tetragonal'
loop_
_space_group_symop_operation_xyz
x,y,z
-y,x,1/2+z
-x,-y,z
y,-x,1/2+z
x,-y,-z
-x,y,-z
y,x,1/2-z
-y,-x,1/2-z
loop_
_atom_site_type_symbol
_atom_site_label
_atom_site_fract_x
_atom_site_fract_y
_atom_site_fract_z
Si Si1 0.146629 0.538026 0.620153
Si Si2 0.088823 0.856581 0.443558
Si Si3 0.596836 0.776120 0.493446
Si Si4 0.260388 0.216611 0.115302
Si Si5 0.412103 0.952993 0.658892
Si Si6 0.070056 0.756316 0.225315
Si Si7 0.771125 0.371917 0.254216
O O1 0.113932 0.500000 0.500000
O O2 0.186806 0.636751 0.609355
O O3 0.072398 0.558366 0.713532
O O4 0.212905 0.460570 0.671026
O O5 0.149893 0.802152 0.538038
O O6 0.037063 0.799214 0.343877
O O7 0.165145 0.909543 0.367941
O O8 0.000000 0.901333 0.500000
O O9 0.500000 0.727693 0.500000
O O10 0.686189 0.731853 0.445959
O O11 0.595656 0.863672 0.414822
O O12 0.608446 0.800202 0.624952
O O13 0.227910 0.227910 0.250000
O O14 0.500000 0.000000 0.613070
O O15 0.319379 0.007318 0.668362
O O16 0.157781 0.706324 0.279861
O O17 0.672731 0.327270 0.250000
#
# Coordination Sequence:
#
# PCOD9549867 Si02
#       7
#     8   8   8   8   8   8   8
#     4  12  25  43  68 107 148 191 242 307 377 466
#     4  11  24  44  73 101 143 204 257 302 380 459
#     4  12  23  44  70 104 144 189 247 310 381 462
#     4  12  24  45  69 106 150 200 250 313 378 456
#     4  12  25  41  68 113 147 181 241 319 398 449
#     4  11  22  43  69 107 145 190 247 318 383 460
#     4  12  22  44  68 101 141 194 236 298 378 450
#
# _framework density 21.654346
#
# number of rings (size 3 to 8) (size 9 to 14) (size 15 to 20)
#    0.000    0.286    7.143    2.571    0.000    2.286 
#    0.000    0.000    0.000   10.286    7.429    0.000 
#    0.000    0.000    0.000    0.000    0.000    0.000 
#
# Total GULP energy -312116.905237 kJ/mol
# GULP energy per Si atom -5573.516165 kJ/mol
# Density = 2.160506 g / cm^3
# Si number density = 21.654346 Si / 1000 Ang^3
#
#
#
# Elastic Constant Matrix: (Units=GPa)
#
#
# Indices 1 2 3 4 5 6 
#
# 1 117.4077 44.0246 39.2507 0.0000 0.0000 0.0000
# 2 44.0246 117.4085 39.2521 0.0000 0.0000 0.0000
# 3 39.2507 39.2521 153.0077 0.0000 0.0000 0.0000
# 4 0.0000 0.0000 0.0000 47.5027 0.0000 0.0000
# 5 0.0000 0.0000 0.0000 0.0000 47.5162 0.0000
# 6 0.0000 0.0000 0.0000 0.0000 0.0000 37.2621
#
#
#
# Elastic Compliance Matrix: (Units=1/GPa)
#
#
# Indices 1 2 3 4 5 6 
#
# 1 0.010352 -0.003275 -0.001816 0.000000 0.000000 0.000000
# 2 -0.003275 0.010352 -0.001816 0.000000 0.000000 0.000000
# 3 -0.001816 -0.001816 0.007467 0.000000 0.000000 0.000000
# 4 0.000000 0.000000 0.000000 0.021051 0.000000 0.000000
# 5 0.000000 0.000000 0.000000 0.000000 0.021045 0.000000
# 6 0.000000 0.000000 0.000000 0.000000 0.000000 0.026837
#
#
# Mechanical properties :
#
#
# Convention : Reuss Voigt Hill
#
# Bulk Modulus (GPa) = 69.63964 70.31986 69.97975
# Shear Modulus (GPa) = 43.21374 44.14263 43.67818
#
# Velocity S-wave (km/s) = 4.47208 4.51989 4.49604
# Velocity P-wave (km/s) = 7.67434 7.73198 7.70321
#
# Compressibility (1/GPa) = 0.01435964
#
# Stress axis : x y z
#
# Youngs Moduli (GPa) = 96.59748 96.59754 133.92021
#
# Poissons Ratio (x) = 0.31634 0.24314
# Poissons Ratio (y) = 0.31634 0.24315
# Poissons Ratio (z) = 0.17538 0.17539
#
# Static dielectric constant tensor:
#      x y z
#    x 1.836010 0.000000 0.000000 
#    y 0.000000 1.836030 0.000000 
#    z 0.000000 0.000000 1.859700 
# 
# From -- ./inp_files/3505.got.cif
#   From: 2010.05.17/outbox.cif.g08.bks.cpg/sg93_2_cif.got.tgz:3505.got - 2010.06.03 19:38:44.
