data_PCOD9549872
_publ_section_title
;
Structure prediction by ZEFSAII (Michael W. Deem and Ramdas Pophale) SiO2 
 PCOD9549872
Probable space group: P 42 2 2
;
_chemical_formula_sum "Si O2"
_cell_formula_units_Z 34
_cell_length_a 11.857158
_cell_length_b 11.857158
_cell_length_c 11.643356
_cell_angle_alpha 90.000000
_cell_angle_beta 90.000000
_cell_angle_gamma 90.000000
_cell_volume 1636.964987
_symmetry_space_group_name_H-M "P 42 2 2"
_symmetry_group_IT_number 93
_symmetry_cell_setting 'tetragonal'
loop_
_space_group_symop_operation_xyz
x,y,z
-y,x,1/2+z
-x,-y,z
y,-x,1/2+z
x,-y,-z
-x,y,-z
y,x,1/2-z
-y,-x,1/2-z
loop_
_atom_site_type_symbol
_atom_site_label
_atom_site_fract_x
_atom_site_fract_y
_atom_site_fract_z
Si Si1 0.837328 0.275336 0.347162
Si Si2 0.500000 0.500000 0.250000
Si Si3 0.185797 0.115875 0.438970
Si Si4 0.916271 0.302134 0.711091
Si Si5 0.262664 0.491546 0.364301
O O1 0.819042 0.180959 0.250000
O O2 0.798516 0.211288 0.462699
O O3 0.767596 0.385694 0.316142
O O4 0.962421 0.328084 0.342101
O O5 0.392662 0.481815 0.332322
O O6 0.285671 0.083639 0.349364
O O7 0.103898 0.182523 0.353133
O O8 0.148518 0.000000 0.500000
O O9 0.817709 0.391012 0.681635
O O10 0.244222 0.500000 0.500000
#
# Coordination Sequence:
#
# PCOD9549872 Si02
#       5
#     8   2   8   8   8
#     4  12  24  45  70 103 141 187 237 281 358 426
#     4  12  26  48  72  98 134 178 238 288 362 412
#     4  11  23  43  68 103 146 184 228 288 347 428
#     4  11  25  44  71 105 142 185 239 291 352 420
#     4  12  26  46  74 101 133 180 234 299 349 419
#
# _framework density 20.770143999999998
#
# number of rings (size 3 to 8) (size 9 to 14) (size 15 to 20)
#    0.000    0.471    5.882    3.176    0.000    2.824 
#    0.000    1.176    0.000    0.000    0.000    0.000 
#    0.000    0.000    0.000    0.000    0.000    0.000 
#
# Total GULP energy -189286.150161 kJ/mol
# GULP energy per Si atom -5567.239711 kJ/mol
# Density = 2.072287 g / cm^3
# Si number density = 20.770144 Si / 1000 Ang^3
#
#
#
# Elastic Constant Matrix: (Units=GPa)
#
#
# Indices 1 2 3 4 5 6 
#
# 1 88.6160 64.8040 24.0796 0.0000 0.0000 0.0000
# 2 64.8040 88.6165 24.0798 0.0000 0.0000 0.0000
# 3 24.0796 24.0798 112.4988 0.0000 0.0000 0.0000
# 4 0.0000 0.0000 0.0000 10.2154 0.0000 0.0000
# 5 0.0000 0.0000 0.0000 0.0000 10.2150 0.0000
# 6 0.0000 0.0000 0.0000 0.0000 0.0000 24.2955
#
#
#
# Elastic Compliance Matrix: (Units=1/GPa)
#
#
# Indices 1 2 3 4 5 6 
#
# 1 0.024491 -0.017504 -0.001496 0.000000 0.000000 0.000000
# 2 -0.017504 0.024491 -0.001496 0.000000 0.000000 0.000000
# 3 -0.001496 -0.001496 0.009529 0.000000 0.000000 0.000000
# 4 0.000000 0.000000 0.000000 0.097891 0.000000 0.000000
# 5 0.000000 0.000000 0.000000 0.000000 0.097895 0.000000
# 6 0.000000 0.000000 0.000000 0.000000 0.000000 0.041160
#
#
# Mechanical properties :
#
#
# Convention : Reuss Voigt Hill
#
# Bulk Modulus (GPa) = 57.07190 57.29534 57.18362
# Shear Modulus (GPa) = 14.60753 20.72970 17.66862
#
# Velocity S-wave (km/s) = 2.65485 3.16262 2.91980
# Velocity P-wave (km/s) = 6.07743 6.40169 6.24166
#
# Compressibility (1/GPa) = 0.01752176
#
# Stress axis : x y z
#
# Youngs Moduli (GPa) = 40.83065 40.83086 104.94005
#
# Poissons Ratio (x) = 0.71470 0.15695
# Poissons Ratio (y) = 0.71469 0.15696
# Poissons Ratio (z) = 0.06107 0.06107
#
# Static dielectric constant tensor:
#      x y z
#    x 1.858860 0.000000 0.000000 
#    y 0.000000 1.858870 0.000000 
#    z 0.000000 0.000000 1.806390 
# 
# From -- ./inp_files/3118.got.cif
#   From: 2010.05.17/outbox.cif.g08.bks.cpg/sg93_2_cif.got.tgz:3118.got - 2010.06.03 19:38:44.
