data_PCOD9549868
_publ_section_title
;
Structure prediction by ZEFSAII (Michael W. Deem and Ramdas Pophale) SiO2 
 PCOD9549868
Probable space group: P 42 2 2
;
_chemical_formula_sum "Si O2"
_cell_formula_units_Z 56
_cell_length_a 15.253919
_cell_length_b 15.253919
_cell_length_c 11.721726
_cell_angle_alpha 90.000000
_cell_angle_beta 90.000000
_cell_angle_gamma 90.000000
_cell_volume 2727.435175
_symmetry_space_group_name_H-M "P 42 2 2"
_symmetry_group_IT_number 93
_symmetry_cell_setting 'tetragonal'
loop_
_space_group_symop_operation_xyz
x,y,z
-y,x,1/2+z
-x,-y,z
y,-x,1/2+z
x,-y,-z
-x,y,-z
y,x,1/2-z
-y,-x,1/2-z
loop_
_atom_site_type_symbol
_atom_site_label
_atom_site_fract_x
_atom_site_fract_y
_atom_site_fract_z
Si Si1 0.895977 0.251098 0.023234
Si Si2 0.627877 0.243655 0.815804
Si Si3 0.000000 0.500000 0.204425
Si Si4 0.776945 0.500000 0.500000
Si Si5 0.210532 0.925246 0.219442
Si Si6 0.074130 0.378881 0.599818
Si Si7 0.569246 0.167413 0.586205
Si Si8 0.789933 0.127648 0.862422
O O1 0.897568 0.254261 0.159798
O O2 0.846097 0.334273 0.967860
O O3 0.851060 0.165194 0.964632
O O4 0.000000 0.251807 0.000000
O O5 0.686993 0.313008 0.750000
O O6 0.571937 0.209477 0.710401
O O7 0.690829 0.166476 0.867103
O O8 0.564948 0.274582 0.916819
O O9 0.028461 0.578810 0.288641
O O10 0.073385 0.466522 0.120343
O O11 0.844571 0.559256 0.571842
O O12 0.115039 0.884961 0.250000
O O13 0.281567 0.891093 0.127705
O O14 0.205118 0.025298 0.172651
O O15 0.000000 0.378669 0.500000
O O16 0.500000 0.209810 0.500000
O O17 0.826460 0.173541 0.750000
#
# Coordination Sequence:
#
# PCOD9549868 Si02
#       8
#     8   8   4   4   8   8   8   8
#     4  12  23  42  63  89 129 184 234 295 350 404
#     4  11  23  44  70  99 140 182 223 278 357 437
#     4  12  20  36  60 102 132 169 223 288 366 442
#     4  12  23  40  70 102 131 178 224 280 353 446
#     4  12  29  41  59  92 136 184 246 300 345 406
#     4  12  22  39  64  96 139 177 229 294 367 430
#     4  12  22  36  65 100 140 175 219 290 369 432
#     4  11  22  44  65  86 130 186 238 282 344 409
#
# _framework density 20.532112000000001
#
# number of rings (size 3 to 8) (size 9 to 14) (size 15 to 20)
#    0.000    0.286    7.143    4.500    4.000    0.286 
#    0.000    0.714    0.000    0.000    0.000    1.500 
#    0.000    0.000    0.000    0.000    0.000    0.000 
#
# Total GULP energy -312256.759753 kJ/mol
# GULP energy per Si atom -5576.013567 kJ/mol
# Density = 2.048538 g / cm^3
# Si number density = 20.532112 Si / 1000 Ang^3
#
#
#
# Elastic Constant Matrix: (Units=GPa)
#
#
# Indices 1 2 3 4 5 6 
#
# 1 68.0039 29.5954 31.6386 0.0000 0.0000 0.0000
# 2 29.5954 68.0043 31.6401 0.0000 0.0000 0.0000
# 3 31.6386 31.6401 99.1617 0.0000 0.0000 0.0000
# 4 0.0000 0.0000 0.0000 38.0331 0.0000 0.0000
# 5 0.0000 0.0000 0.0000 0.0000 38.0313 0.0000
# 6 0.0000 0.0000 0.0000 0.0000 0.0000 4.1737
#
#
#
# Elastic Compliance Matrix: (Units=1/GPa)
#
#
# Indices 1 2 3 4 5 6 
#
# 1 0.019477 -0.006559 -0.004122 0.000000 0.000000 0.000000
# 2 -0.006559 0.019477 -0.004122 0.000000 0.000000 0.000000
# 3 -0.004122 -0.004122 0.012715 0.000000 0.000000 0.000000
# 4 0.000000 0.000000 0.000000 0.026293 0.000000 0.000000
# 5 0.000000 0.000000 0.000000 0.000000 0.026294 0.000000
# 6 0.000000 0.000000 0.000000 0.000000 0.000000 0.239593
#
#
# Mechanical properties :
#
#
# Convention : Reuss Voigt Hill
#
# Bulk Modulus (GPa) = 45.32232 46.76869 46.04551
# Shear Modulus (GPa) = 13.12996 25.53400 19.33198
#
# Velocity S-wave (km/s) = 2.53155 3.53032 3.07179
# Velocity P-wave (km/s) = 5.53776 6.28055 5.92081
#
# Compressibility (1/GPa) = 0.02206418
#
# Stress axis : x y z
#
# Youngs Moduli (GPa) = 51.34272 51.34217 78.64831
#
# Poissons Ratio (x) = 0.33674 0.32416
# Poissons Ratio (y) = 0.33674 0.32419
# Poissons Ratio (z) = 0.21161 0.21164
#
# Static dielectric constant tensor:
#      x y z
#    x 1.742180 0.000000 0.000000 
#    y 0.000000 1.742190 0.000000 
#    z 0.000000 0.000000 1.764710 
# 
# From -- ./inp_files/3536.got.cif
#   From: 2010.05.17/outbox.cif.g08.bks.cpg/sg93_2_cif.got.tgz:3536.got - 2010.06.03 19:38:44.
