data_PCOD9549200
_publ_section_title
;
Structure prediction by ZEFSAII (Michael W. Deem and Ramdas Pophale) SiO2 
 PCOD9549200
Probable space group: P 41 21 2
;
_chemical_formula_sum "Si O2"
_cell_formula_units_Z 60
_cell_length_a 17.503164
_cell_length_b 17.503164
_cell_length_c 9.150388
_cell_angle_alpha 90.000000
_cell_angle_beta 90.000000
_cell_angle_gamma 90.000000
_cell_volume 2803.319731
_symmetry_space_group_name_H-M "P 41 21 2"
_symmetry_group_IT_number 92
_symmetry_cell_setting 'tetragonal'
loop_
_space_group_symop_operation_xyz
x,y,z
1/2-y,1/2+x,1/4+z
-x,-y,1/2+z
1/2+y,1/2-x,3/4+z
1/2+x,1/2-y,3/4-z
1/2-x,1/2+y,1/4-z
y,x,-z
-y,-x,1/2-z
loop_
_atom_site_type_symbol
_atom_site_label
_atom_site_fract_x
_atom_site_fract_y
_atom_site_fract_z
Si Si1 0.842832 0.741505 0.394498
Si Si2 0.327757 0.507296 0.210493
Si Si3 0.529046 0.073050 0.088976
Si Si4 0.449179 0.568481 0.026390
Si Si5 0.693122 0.843145 0.908488
Si Si6 0.302325 0.921468 0.897974
Si Si7 0.088374 0.377556 0.102453
Si Si8 0.138333 0.138333 0.500000
O O1 0.794343 0.794343 0.500000
O O2 0.926671 0.779521 0.379319
O O3 0.804389 0.726093 0.238735
O O4 0.860944 0.666692 0.485403
O O5 0.400914 0.501128 0.106406
O O6 0.361967 0.541818 0.360138
O O7 0.274171 0.437779 0.258310
O O8 0.499670 0.066278 0.256168
O O9 0.587357 0.142773 0.094428
O O10 0.460125 0.082666 0.973469
O O11 0.532004 0.532004 0.000000
O O12 0.404656 0.601252 0.887874
O O13 0.633961 0.795655 0.008332
O O14 0.769448 0.871014 0.991467
O O15 0.336308 0.007075 0.870000
O O16 0.365769 0.882885 0.999014
#
# Coordination Sequence:
#
# PCOD9549200 Si02
#       8
#     8   8   8   8   8   8   8   4
#     4  11  21  44  71  91 129 190 236 279 345 437
#     4  10  21  46  69  95 136 176 226 288 356 427
#     4  12  23  41  65 101 141 182 235 288 346 426
#     4  11  23  45  80 105 130 178 243 306 368 422
#     4  12  27  41  67 102 144 185 237 291 360 429
#     4  11  26  39  67 102 143 185 233 291 347 422
#     4  11  23  41  66 100 137 187 235 277 348 419
#     4  12  26  44  70 108 140 182 242 298 358 444
#
# _framework density 21.403198
#
# number of rings (size 3 to 8) (size 9 to 14) (size 15 to 20)
#    0.000    0.800    5.333    2.400    7.467    0.000 
#    1.200    0.667    2.933    0.000    0.000    0.000 
#    0.000    0.000    0.000    0.000    0.000    0.000 
#
# Total GULP energy -334870.559008 kJ/mol
# GULP energy per Si atom -5581.175983 kJ/mol
# Density = 2.135448 g / cm^3
# Si number density = 21.403198 Si / 1000 Ang^3
#
#
#
# Elastic Constant Matrix: (Units=GPa)
#
#
# Indices 1 2 3 4 5 6 
#
# 1 40.9675 5.1110 25.9827 0.0000 0.0000 0.0000
# 2 5.1110 40.9675 25.9827 0.0000 0.0000 0.0000
# 3 25.9827 25.9827 121.1983 0.0000 0.0000 0.0000
# 4 0.0000 0.0000 0.0000 28.1275 0.0000 0.0000
# 5 0.0000 0.0000 0.0000 0.0000 28.1275 0.0000
# 6 0.0000 0.0000 0.0000 0.0000 0.0000 15.8906
#
#
#
# Elastic Compliance Matrix: (Units=1/GPa)
#
#
# Indices 1 2 3 4 5 6 
#
# 1 0.028256 0.000367 -0.006136 0.000000 0.000000 0.000000
# 2 0.000367 0.028256 -0.006136 0.000000 0.000000 0.000000
# 3 -0.006136 -0.006136 0.010882 0.000000 0.000000 0.000000
# 4 0.000000 0.000000 0.000000 0.035552 0.000000 0.000000
# 5 0.000000 0.000000 0.000000 0.000000 0.035552 0.000000
# 6 0.000000 0.000000 0.000000 0.000000 0.000000 0.062930
#
#
# Mechanical properties :
#
#
# Convention : Reuss Voigt Hill
#
# Bulk Modulus (GPa) = 22.94532 35.25401 29.09966
# Shear Modulus (GPa) = 20.85363 24.16625 22.50994
#
# Velocity S-wave (km/s) = 3.12480 3.36385 3.24652
# Velocity P-wave (km/s) = 4.87473 5.62089 5.26105
#
# Compressibility (1/GPa) = 0.04358188
#
# Stress axis : x y z
#
# Youngs Moduli (GPa) = 35.39128 35.39128 91.89595
#
# Poissons Ratio (x) = -0.01297 0.56388
# Poissons Ratio (y) = -0.01297 0.56388
# Poissons Ratio (z) = 0.21716 0.21716
#
# Static dielectric constant tensor:
#      x y z
#    x 1.855000 0.000000 0.000000 
#    y 0.000000 1.855000 0.000000 
#    z 0.000000 0.000000 1.874310 
# 
# From -- ./inp_files/1648.got.cif
#   From: 2010.05.17/outbox.cif.g08.bks.cpg/sg92_1_cif.got.tgz:1648.got - 2010.06.03 19:35:17.
