data_PCOD9549816
_publ_section_title
;
Structure prediction by ZEFSAII (Michael W. Deem and Ramdas Pophale) SiO2 
 PCOD9549816
Probable space group: P 42 2 2
;
_chemical_formula_sum "Si O2"
_cell_formula_units_Z 20
_cell_length_a 5.218966
_cell_length_b 5.218966
_cell_length_c 32.466498
_cell_angle_alpha 90.000000
_cell_angle_beta 90.000000
_cell_angle_gamma 90.000000
_cell_volume 884.309684
_symmetry_space_group_name_H-M "P 42 2 2"
_symmetry_group_IT_number 93
_symmetry_cell_setting 'tetragonal'
loop_
_space_group_symop_operation_xyz
x,y,z
-y,x,1/2+z
-x,-y,z
y,-x,1/2+z
x,-y,-z
-x,y,-z
y,x,1/2-z
-y,-x,1/2-z
loop_
_atom_site_type_symbol
_atom_site_label
_atom_site_fract_x
_atom_site_fract_y
_atom_site_fract_z
Si Si1 0.660354 0.736151 0.420420
Si Si2 0.500000 0.500000 0.250000
Si Si3 0.500000 0.000000 0.307062
Si Si4 0.000000 0.000000 0.636045
Si Si5 0.500000 0.500000 0.500000
O O1 0.500000 0.500000 0.401659
O O2 0.672812 0.664607 0.468652
O O3 0.500000 0.000000 0.417734
O O4 0.920492 0.777500 0.395844
O O5 0.509418 0.750050 0.278597
O O6 0.753111 0.026810 0.335089
#
# Coordination Sequence:
#
# PCOD9549816 Si02
#       5
#     8   2   4   4   2
#     4  10  23  44  74 107 151 206 255 318 379 437
#     4  12  28  54  76 120 146 196 240 298 408 464
#     4  12  28  48  84 109 158 186 248 313 378 480
#     4  12  26  49  81 114 152 200 258 316 380 450
#     4   8  22  46  72 104 160 202 260 324 368 450
#
# _framework density 22.616513000000001
#
# number of rings (size 3 to 8) (size 9 to 14) (size 15 to 20)
#    1.200    0.000    2.000    3.000    2.800    4.800 
#    0.000    6.000    0.000    0.000    0.000    0.000 
#    0.000    0.000    0.000    0.000    0.000    0.000 
#
# Total GULP energy -111734.453665 kJ/mol
# GULP energy per Si atom -5586.722683 kJ/mol
# Density = 2.256504 g / cm^3
# Si number density = 22.616513 Si / 1000 Ang^3
#
#
#
# Elastic Constant Matrix: (Units=GPa)
#
#
# Indices 1 2 3 4 5 6 
#
# 1 194.1239 72.5913 98.9119 0.0000 0.0000 0.0000
# 2 72.5913 194.1239 98.9119 0.0000 0.0000 0.0000
# 3 98.9119 98.9119 208.8944 0.0000 0.0000 0.0000
# 4 0.0000 0.0000 0.0000-1166.2718 0.0000 0.0000
# 5 0.0000 0.0000 0.0000 0.0000-1166.2718 0.0000
# 6 0.0000 0.0000 0.0000 0.0000 0.0000 37.1296
#
#
#
# Elastic Compliance Matrix: (Units=1/GPa)
#
#
# Indices 1 2 3 4 5 6 
#
# 1 0.007004 -0.001225 -0.002736 0.000000 0.000000 0.000000
# 2 -0.001225 0.007004 -0.002736 0.000000 0.000000 0.000000
# 3 -0.002736 -0.002736 0.007378 0.000000 0.000000 0.000000
# 4 0.000000 0.000000 0.000000 -0.000857 0.000000 0.000000
# 5 0.000000 0.000000 0.000000 0.000000 -0.000857 0.000000
# 6 0.000000 0.000000 0.000000 0.000000 0.000000 0.026933
#
#
# Mechanical properties :
#
#
# Convention : Reuss Voigt Hill
#
# Bulk Modulus (GPa) = 125.14241 126.44138 125.79190
# Shear Modulus (GPa) = 79.79386 -437.30100 -178.75357
#
# Velocity S-wave (km/s) = 5.94625 -13.92029 -8.89991
# Velocity P-wave (km/s) = 10.12898 14.22455 7.06193
#
# Compressibility (1/GPa) = 0.00799090
#
# Stress axis : x y z
#
# Youngs Moduli (GPa) = 142.78490 142.78490 135.53101
#
# Poissons Ratio (x) = 0.17487 0.37085
# Poissons Ratio (y) = 0.17487 0.37085
# Poissons Ratio (z) = 0.39070 0.39070
#
# Static dielectric constant tensor:
#      x y z
#    x 1.890400 0.000000 0.000000 
#    y 0.000000 1.890400 0.000000 
#    z 0.000000 0.000000 1.841580 
# 
# From -- ./inp_files/7467.got.cif
#   From: 2010.05.17/outbox.cif.g08.bks.cpg/sg93_4_cif.got.tgz:7467.got - 2010.06.03 19:38:44.
