data_PCOD9549735
_publ_section_title
;
Structure prediction by ZEFSAII (Michael W. Deem and Ramdas Pophale) SiO2 
 PCOD9549735
Probable space group: P 42 2 2
;
_chemical_formula_sum "Si O2"
_cell_formula_units_Z 28
_cell_length_a 17.931592
_cell_length_b 17.931592
_cell_length_c 5.097596
_cell_angle_alpha 90.000000
_cell_angle_beta 90.000000
_cell_angle_gamma 90.000000
_cell_volume 1639.091170
_symmetry_space_group_name_H-M "P 42 2 2"
_symmetry_group_IT_number 93
_symmetry_cell_setting 'tetragonal'
loop_
_space_group_symop_operation_xyz
x,y,z
-y,x,1/2+z
-x,-y,z
y,-x,1/2+z
x,-y,-z
-x,y,-z
y,x,1/2-z
-y,-x,1/2-z
loop_
_atom_site_type_symbol
_atom_site_label
_atom_site_fract_x
_atom_site_fract_y
_atom_site_fract_z
Si Si1 0.715274 0.176624 0.823025
Si Si2 0.051812 0.606428 0.747533
Si Si3 0.358661 0.750707 0.323026
Si Si4 0.500000 0.828249 0.500000
O O1 0.799698 0.200302 0.750000
O O2 0.685757 0.093359 0.784072
O O3 0.670643 0.227034 0.610530
O O4 0.687414 0.200252 0.111338
O O5 0.117073 0.546877 0.808997
O O6 0.000000 0.589687 0.500000
O O7 0.000000 0.606800 0.000000
O O8 0.333095 0.666905 0.250000
O O9 0.443749 0.776893 0.332409
#
# Coordination Sequence:
#
# PCOD9549735 Si02
#       4
#     8   8   8   4
#     4   9  18  33  48  63  91 130 164 194 225 271
#     4  11  22  32  45  72 103 127 154 189 238 297
#     4   9  18  31  47  66  89 123 169 202 228 278
#     4  10  21  32  48  68 102 137 158 198 254 295
#
# _framework density 17.082636999999998
#
# number of rings (size 3 to 8) (size 9 to 14) (size 15 to 20)
#    0.000    2.286    0.000    3.857    0.000   13.714 
#    0.000    0.000    0.000    0.000    0.000    0.000 
#    0.000  273.143    0.000    0.000    0.000    0.000 
#
# Total GULP energy -155943.402826 kJ/mol
# GULP energy per Si atom -5569.407244 kJ/mol
# Density = 1.704376 g / cm^3
# Si number density = 17.082637 Si / 1000 Ang^3
#
#
#
# Elastic Constant Matrix: (Units=GPa)
#
#
# Indices 1 2 3 4 5 6 
#
# 1 77.7922 74.4462 31.9535 0.0000 0.0000 0.0000
# 2 74.4462 77.7939 31.9536 0.0000 0.0000 0.0000
# 3 31.9535 31.9536 104.2066 0.0000 0.0000 0.0000
# 4 0.0000 0.0000 0.0000 18.0672 0.0000 0.0000
# 5 0.0000 0.0000 0.0000 0.0000 18.0670 0.0000
# 6 0.0000 0.0000 0.0000 0.0000 0.0000 131.3231
#
#
#
# Elastic Compliance Matrix: (Units=1/GPa)
#
#
# Indices 1 2 3 4 5 6 
#
# 1 0.153167 -0.145626 -0.002312 0.000000 0.000000 0.000000
# 2 -0.145626 0.153163 -0.002311 0.000000 0.000000 0.000000
# 3 -0.002312 -0.002311 0.011014 0.000000 0.000000 0.000000
# 4 0.000000 0.000000 0.000000 0.055349 0.000000 0.000000
# 5 0.000000 0.000000 0.000000 0.000000 0.055349 0.000000
# 6 0.000000 0.000000 0.000000 0.000000 0.000000 0.007615
#
#
# Mechanical properties :
#
#
# Convention : Reuss Voigt Hill
#
# Bulk Modulus (GPa) = 59.36430 59.61105 59.48767
# Shear Modulus (GPa) = 6.74061 41.58741 24.16401
#
# Velocity S-wave (km/s) = 1.98858 4.93940 3.76511
# Velocity P-wave (km/s) = 6.33240 8.21594 7.33488
#
# Compressibility (1/GPa) = 0.01684514
#
# Stress axis : x y z
#
# Youngs Moduli (GPa) = 6.52882 6.52897 90.79314
#
# Poissons Ratio (x) = 0.95079 0.20993
# Poissons Ratio (y) = 0.95077 0.20985
# Poissons Ratio (z) = 0.01510 0.01509
#
# Static dielectric constant tensor:
#      x y z
#    x 1.623180 0.000000 0.000000 
#    y 0.000000 1.623170 0.000000 
#    z 0.000000 0.000000 1.586780 
# 
# From -- ./inp_files/343.got.cif
#   From: 2010.05.17/outbox.cif.g08.bks.cpg/sg93_1_cif.got.tgz:343.got - 2010.06.03 19:38:44.
