data_PCOD9549091
_publ_section_title
;
Structure prediction by ZEFSAII (Michael W. Deem and Ramdas Pophale) SiO2 
 PCOD9549091
Probable space group: P 41 21 2
;
_chemical_formula_sum "Si O2"
_cell_formula_units_Z 60
_cell_length_a 11.002694
_cell_length_b 11.002694
_cell_length_c 20.547137
_cell_angle_alpha 90.000000
_cell_angle_beta 90.000000
_cell_angle_gamma 90.000000
_cell_volume 2487.421514
_symmetry_space_group_name_H-M "P 41 21 2"
_symmetry_group_IT_number 92
_symmetry_cell_setting 'tetragonal'
loop_
_space_group_symop_operation_xyz
x,y,z
1/2-y,1/2+x,1/4+z
-x,-y,1/2+z
1/2+y,1/2-x,3/4+z
1/2+x,1/2-y,3/4-z
1/2-x,1/2+y,1/4-z
y,x,-z
-y,-x,1/2-z
loop_
_atom_site_type_symbol
_atom_site_label
_atom_site_fract_x
_atom_site_fract_y
_atom_site_fract_z
Si Si1 0.357660 0.642341 0.250000
Si Si2 0.698930 0.249733 0.549790
Si Si3 0.350852 0.044176 0.500373
Si Si4 0.872818 0.513372 0.778846
Si Si5 0.351519 0.244977 0.596758
Si Si6 0.858694 0.671365 0.175200
Si Si7 0.526702 0.441150 0.615371
Si Si8 0.285654 0.436997 0.868209
O O1 0.217192 0.598944 0.260049
O O2 0.416522 0.576331 0.187237
O O3 0.650992 0.121061 0.523783
O O4 0.771787 0.310883 0.491317
O O5 0.602808 0.349345 0.570741
O O6 0.794287 0.227484 0.607588
O O7 0.480805 0.000434 0.470451
O O8 0.361501 0.180835 0.526929
O O9 0.331290 0.969703 0.567227
O O10 0.244947 0.001344 0.451515
O O11 0.824173 0.566072 0.848331
O O12 0.213496 0.254285 0.620755
O O13 0.394943 0.384102 0.604725
O O14 0.000831 0.688203 0.164697
O O15 0.533227 0.583067 0.603179
#
# Coordination Sequence:
#
# PCOD9549091 Si02
#       8
#     4   8   8   8   8   8   8   8
#     4  10  22  38  70 104 132 186 236 292 342 428
#     4  10  22  46  67  98 141 180 233 296 354 424
#     4  11  23  44  68  96 137 184 234 292 359 431
#     4  10  20  43  68 101 140 181 242 286 363 428
#     4  10  23  42  69  97 132 185 227 293 353 421
#     4  10  25  42  62  98 136 174 231 291 350 430
#     4  11  23  43  71 101 139 188 237 291 354 428
#     4  11  25  43  69 100 138 184 235 297 356 426
#
# _framework density 24.121362999999999
#
# number of rings (size 3 to 8) (size 9 to 14) (size 15 to 20)
#    0.000    1.600    2.667    0.800    5.600    1.067 
#    9.600    1.333    0.000    0.000    0.000    0.000 
#    0.000    0.000    0.000    0.000    0.000    0.000 
#
# Total GULP energy -335124.278171 kJ/mol
# GULP energy per Si atom -5585.404636 kJ/mol
# Density = 2.406646 g / cm^3
# Si number density = 24.121363 Si / 1000 Ang^3
#
#
#
# Elastic Constant Matrix: (Units=GPa)
#
#
# Indices 1 2 3 4 5 6 
#
# 1 88.3637 34.0762 16.5817 0.0000 0.0000 0.0000
# 2 34.0762 88.3646 16.5819 0.0000 0.0000 0.0000
# 3 16.5817 16.5819 28.0208 0.0000 0.0000 0.0000
# 4 0.0000 0.0000 0.0000 35.4273 0.0000 0.0000
# 5 0.0000 0.0000 0.0000 0.0000 35.4271 0.0000
# 6 0.0000 0.0000 0.0000 0.0000 0.0000 31.4138
#
#
#
# Elastic Compliance Matrix: (Units=1/GPa)
#
#
# Indices 1 2 3 4 5 6 
#
# 1 0.014073 -0.004347 -0.005756 0.000000 0.000000 0.000000
# 2 -0.004347 0.014073 -0.005756 0.000000 0.000000 0.000000
# 3 -0.005756 -0.005756 0.042500 0.000000 0.000000 0.000000
# 4 0.000000 0.000000 0.000000 0.028227 0.000000 0.000000
# 5 0.000000 0.000000 0.000000 0.000000 0.028227 0.000000
# 6 0.000000 0.000000 0.000000 0.000000 0.000000 0.031833
#
#
# Mechanical properties :
#
#
# Convention : Reuss Voigt Hill
#
# Bulk Modulus (GPa) = 25.68738 37.69208 31.68973
# Shear Modulus (GPa) = 24.55475 29.62091 27.08783
#
# Velocity S-wave (km/s) = 3.19402 3.50808 3.35473
# Velocity P-wave (km/s) = 4.92694 5.66293 5.30770
#
# Compressibility (1/GPa) = 0.03892963
#
# Stress axis : x y z
#
# Youngs Moduli (GPa) = 71.05651 71.05713 23.52951
#
# Poissons Ratio (x) = 0.30889 0.13543
# Poissons Ratio (y) = 0.30889 0.13543
# Poissons Ratio (z) = 0.40897 0.40898
#
# Static dielectric constant tensor:
#      x y z
#    x 1.967740 0.000000 0.000000 
#    y 0.000000 1.967740 0.000000 
#    z 0.000000 0.000000 1.964580 
# 
# From -- ./inp_files/3624.got.cif
#   From: 2010.05.17/outbox.cif.g08.bks.cpg/sg92_2_cif.got.tgz:3624.got - 2010.06.03 19:35:17.
