data_PCOD9549418
_publ_section_title
;
Structure prediction by ZEFSAII (Michael W. Deem and Ramdas Pophale) SiO2 
 PCOD9549418
Probable space group: P 41 21 2
;
_chemical_formula_sum "Si O2"
_cell_formula_units_Z 56
_cell_length_a 14.359989
_cell_length_b 14.359989
_cell_length_c 10.231874
_cell_angle_alpha 90.000000
_cell_angle_beta 90.000000
_cell_angle_gamma 90.000000
_cell_volume 2109.907412
_symmetry_space_group_name_H-M "P 41 21 2"
_symmetry_group_IT_number 92
_symmetry_cell_setting 'tetragonal'
loop_
_space_group_symop_operation_xyz
x,y,z
1/2-y,1/2+x,1/4+z
-x,-y,1/2+z
1/2+y,1/2-x,3/4+z
1/2+x,1/2-y,3/4-z
1/2-x,1/2+y,1/4-z
y,x,-z
-y,-x,1/2-z
loop_
_atom_site_type_symbol
_atom_site_label
_atom_site_fract_x
_atom_site_fract_y
_atom_site_fract_z
Si Si1 0.756798 0.756798 0.000000
Si Si2 0.039536 0.739471 0.812234
Si Si3 0.115095 0.817708 0.393808
Si Si4 0.491501 0.622686 0.669988
Si Si5 0.076444 0.232976 0.828391
Si Si6 0.914569 0.551298 0.265045
Si Si7 0.457332 0.457332 0.500000
Si Si8 0.351489 0.761203 0.031117
O O1 0.648168 0.775299 0.963373
O O2 0.815484 0.761103 0.866017
O O3 0.019718 0.683445 0.948025
O O4 0.024246 0.848762 0.773239
O O5 0.955641 0.699691 0.721640
O O6 0.143187 0.856813 0.250000
O O7 0.143894 0.907085 0.480615
O O8 0.168150 0.723025 0.413277
O O9 0.009297 0.790724 0.420710
O O10 0.398879 0.601122 0.750000
O O11 0.464539 0.697194 0.561186
O O12 0.505301 0.517434 0.614102
O O13 0.096902 0.342554 0.818172
O O14 0.165179 0.169735 0.853952
O O15 0.943173 0.486404 0.389515
#
# Coordination Sequence:
#
# PCOD9549418 Si02
#       8
#     4   8   8   8   8   8   4   8
#     4  11  26  46  72 116 142 183 254 314 368 447
#     4  11  25  44  70 106 148 184 243 315 378 437
#     4  10  25  48  68 104 148 194 243 293 366 457
#     4  11  23  41  74 106 142 189 237 310 379 447
#     4  11  25  47  72 106 145 196 251 295 382 451
#     4  12  30  52  77 108 151 207 262 309 377 457
#     4  11  22  44  68 106 148 171 238 320 382 433
#     4  12  25  46  75 106 144 192 242 312 372 443
#
# _framework density 26.541449
#
# number of rings (size 3 to 8) (size 9 to 14) (size 15 to 20)
#    0.000    0.857    5.000    0.857   13.000    0.000 
#    2.571    0.714    0.000    0.000    0.000    0.000 
#    0.000    0.000    0.000    0.000    0.000    0.000 
#
# Total GULP energy -312621.173316 kJ/mol
# GULP energy per Si atom -5582.520952 kJ/mol
# Density = 2.648104 g / cm^3
# Si number density = 26.541449 Si / 1000 Ang^3
#
#
#
# Elastic Constant Matrix: (Units=GPa)
#
#
# Indices 1 2 3 4 5 6 
#
# 1 252.3851 -201.9921 -6.3652 0.0000 0.0000 0.0000
# 2 -201.9921 252.4062 -6.3690 0.0000 0.0000 0.0000
# 3 -6.3652 -6.3690 89.9766 0.0000 0.0000 0.0000
# 4 0.0000 0.0000 0.0000 31.5652 0.0000 0.0000
# 5 0.0000 0.0000 0.0000 0.0000 31.5655 0.0000
# 6 0.0000 0.0000 0.0000 0.0000 0.0000 30.5572
#
#
#
# Elastic Compliance Matrix: (Units=1/GPa)
#
#
# Indices 1 2 3 4 5 6 
#
# 1 0.011201 0.009000 0.001429 0.000000 0.000000 0.000000
# 2 0.009000 0.011200 0.001430 0.000000 0.000000 0.000000
# 3 0.001429 0.001430 0.011316 0.000000 0.000000 0.000000
# 4 0.000000 0.000000 0.000000 0.031680 0.000000 0.000000
# 5 0.000000 0.000000 0.000000 0.000000 0.031680 0.000000
# 6 0.000000 0.000000 0.000000 0.000000 0.000000 0.032726
#
#
# Mechanical properties :
#
#
# Convention : Reuss Voigt Hill
#
# Bulk Modulus (GPa) = 17.41058 18.36838 17.88948
# Shear Modulus (GPa) = 39.92610 72.70387 56.31498
#
# Velocity S-wave (km/s) = 3.88273 5.23947 4.61127
# Velocity P-wave (km/s) = 5.16476 6.59836 5.92508
#
# Compressibility (1/GPa) = 0.05743635
#
# Stress axis : x y z
#
# Youngs Moduli (GPa) = 89.27497 89.28226 88.36799
#
# Poissons Ratio (x) = -0.80355 -0.12632
# Poissons Ratio (y) = -0.80349 -0.12632
# Poissons Ratio (z) = -0.12762 -0.12763
#
# Static dielectric constant tensor:
#      x y z
#    x 2.150370 0.000000 0.000000 
#    y 0.000000 2.150370 0.000000 
#    z 0.000000 0.000000 2.441650 
# 
# From -- ./inp_files/2303.got.cif
#   From: 2010.05.17/outbox.cif.g08.bks.cpg/sg92_2_cif.got.tgz:2303.got - 2010.06.03 19:35:17.
