data_PCOD9549025
_publ_section_title
;
Structure prediction by ZEFSAII (Michael W. Deem and Ramdas Pophale) SiO2 
 PCOD9549025
Probable space group: P 41 21 2
;
_chemical_formula_sum "Si O2"
_cell_formula_units_Z 48
_cell_length_a 22.601045
_cell_length_b 22.601045
_cell_length_c 5.279449
_cell_angle_alpha 90.000000
_cell_angle_beta 90.000000
_cell_angle_gamma 90.000000
_cell_volume 2696.780746
_symmetry_space_group_name_H-M "P 41 21 2"
_symmetry_group_IT_number 92
_symmetry_cell_setting 'tetragonal'
loop_
_space_group_symop_operation_xyz
x,y,z
1/2-y,1/2+x,1/4+z
-x,-y,1/2+z
1/2+y,1/2-x,3/4+z
1/2+x,1/2-y,3/4-z
1/2-x,1/2+y,1/4-z
y,x,-z
-y,-x,1/2-z
loop_
_atom_site_type_symbol
_atom_site_label
_atom_site_fract_x
_atom_site_fract_y
_atom_site_fract_z
Si Si1 0.291768 0.761863 0.997928
Si Si2 0.042576 0.719176 0.536181
Si Si3 0.523718 0.079412 0.422380
Si Si4 0.862127 0.191031 0.004627
Si Si5 0.146018 0.423000 0.795586
Si Si6 0.589483 0.181371 0.680641
O O1 0.277086 0.722915 0.750000
O O2 0.249286 0.819581 0.980418
O O3 0.271778 0.728223 0.250000
O O4 0.358676 0.781817 0.049305
O O5 0.071830 0.783673 0.522832
O O6 0.067789 0.686004 0.290518
O O7 0.971252 0.716488 0.514618
O O8 0.065387 0.685217 0.792159
O O9 0.477530 0.063155 0.636681
O O10 0.476459 0.098095 0.207824
O O11 0.566283 0.132386 0.484423
O O12 0.847137 0.152864 0.250000
O O13 0.843418 0.156582 0.750000
O O14 0.115735 0.358665 0.836875
#
# Coordination Sequence:
#
# PCOD9549025 Si02
#       6
#     8   8   8   8   8   8
#     4  10  23  37  58  78 104 146 192 234 280 328
#     4  11  23  36  57  84 109 147 190 232 279 323
#     4  11  22  35  51  76 111 155 191 226 268 310
#     4  10  20  37  57  78 106 142 189 231 274 331
#     4  11  22  36  53  78 113 149 192 230 267 314
#     4  11  22  37  58  80 113 147 192 239 274 334
#
# _framework density 17.798998999999998
#
# number of rings (size 3 to 8) (size 9 to 14) (size 15 to 20)
#    0.000    1.333    1.667    5.000    4.667    4.000 
#    0.000    0.000    0.000    0.000    0.000    0.000 
#    0.000    2.667    0.000    0.000    0.000    0.000 
#
# Total GULP energy -267922.117520 kJ/mol
# GULP energy per Si atom -5581.710782 kJ/mol
# Density = 1.775849 g / cm^3
# Si number density = 17.798999 Si / 1000 Ang^3
#
#
#
# Elastic Constant Matrix: (Units=GPa)
#
#
# Indices 1 2 3 4 5 6 
#
# 1 60.6399 40.7495 13.7567 0.0000 0.0000 0.0000
# 2 40.7495 60.6361 13.7558 0.0000 0.0000 0.0000
# 3 13.7567 13.7558 101.8809 0.0000 0.0000 0.0000
# 4 0.0000 0.0000 0.0000 17.4478 0.0000 0.0000
# 5 0.0000 0.0000 0.0000 0.0000 17.4480 0.0000
# 6 0.0000 0.0000 0.0000 0.0000 0.0000 90.8184
#
#
#
# Elastic Compliance Matrix: (Units=1/GPa)
#
#
# Indices 1 2 3 4 5 6 
#
# 1 0.030258 -0.020021 -0.001382 0.000000 0.000000 0.000000
# 2 -0.020021 0.030260 -0.001382 0.000000 0.000000 0.000000
# 3 -0.001382 -0.001382 0.010189 0.000000 0.000000 0.000000
# 4 0.000000 0.000000 0.000000 0.057314 0.000000 0.000000
# 5 0.000000 0.000000 0.000000 0.000000 0.057313 0.000000
# 6 0.000000 0.000000 0.000000 0.000000 0.000000 0.011011
#
#
# Mechanical properties :
#
#
# Convention : Reuss Voigt Hill
#
# Bulk Modulus (GPa) = 39.78416 39.96456 39.87436
# Shear Modulus (GPa) = 19.97638 35.46916 27.72277
#
# Velocity S-wave (km/s) = 3.35376 4.46888 3.95086
# Velocity P-wave (km/s) = 6.11534 7.00927 6.57751
#
# Compressibility (1/GPa) = 0.02513563
#
# Stress axis : x y z
#
# Youngs Moduli (GPa) = 33.04864 33.04665 98.14795
#
# Poissons Ratio (x) = 0.66163 0.13569
# Poissons Ratio (y) = 0.66167 0.13567
# Poissons Ratio (z) = 0.04569 0.04568
#
# Static dielectric constant tensor:
#      x y z
#    x 1.677680 0.000000 0.000000 
#    y 0.000000 1.677680 0.000000 
#    z 0.000000 0.000000 1.693550 
# 
# From -- ./inp_files/647.got.cif
#   From: 2010.05.17/outbox.cif.g08.bks.cpg/sg92_1_cif.got.tgz:647.got - 2010.06.03 19:35:17.
