data_PCOD9549416
_publ_section_title
;
Structure prediction by ZEFSAII (Michael W. Deem and Ramdas Pophale) SiO2 
 PCOD9549416
Probable space group: P 41 21 2
;
_chemical_formula_sum "Si O2"
_cell_formula_units_Z 24
_cell_length_a 7.702665
_cell_length_b 7.702665
_cell_length_c 14.834564
_cell_angle_alpha 90.000000
_cell_angle_beta 90.000000
_cell_angle_gamma 90.000000
_cell_volume 880.150230
_symmetry_space_group_name_H-M "P 41 21 2"
_symmetry_group_IT_number 92
_symmetry_cell_setting 'tetragonal'
loop_
_space_group_symop_operation_xyz
x,y,z
1/2-y,1/2+x,1/4+z
-x,-y,1/2+z
1/2+y,1/2-x,3/4+z
1/2+x,1/2-y,3/4-z
1/2-x,1/2+y,1/4-z
y,x,-z
-y,-x,1/2-z
loop_
_atom_site_type_symbol
_atom_site_label
_atom_site_fract_x
_atom_site_fract_y
_atom_site_fract_z
Si Si1 0.845677 0.688603 0.089303
Si Si2 0.058202 0.857854 0.340920
Si Si3 0.840599 0.681073 0.748275
O O1 0.893568 0.494662 0.059690
O O2 0.728903 0.690410 0.179644
O O3 0.988449 0.832943 0.112301
O O4 0.750640 0.750640 0.000000
O O5 0.170620 0.829381 0.250000
O O6 0.055656 0.715907 0.418684
O O7 0.864589 0.886647 0.301803
#
# Coordination Sequence:
#
# PCOD9549416 Si02
#       3
#     8   8   8
#     4  11  23  44  72 104 144 193 244 302 369 446
#     4  10  25  46  70 107 148 194 249 304 373 447
#     4  11  25  46  75 109 149 195 249 310 377 451
#
# _framework density 27.268070000000002
#
# number of rings (size 3 to 8) (size 9 to 14) (size 15 to 20)
#    0.000    1.333    0.000    5.000    0.000   12.000 
#    0.000    6.667    0.000    0.000    0.000    0.000 
#    0.000    0.000    0.000    0.000    0.000    0.000 
#
# Total GULP energy -134405.512601 kJ/mol
# GULP energy per Si atom -5600.229692 kJ/mol
# Density = 2.720601 g / cm^3
# Si number density = 27.268070 Si / 1000 Ang^3
#
#
#
# Elastic Constant Matrix: (Units=GPa)
#
#
# Indices 1 2 3 4 5 6 
#
# 1 118.1296 31.6334 72.3259 0.0000 0.0000 0.0000
# 2 31.6334 118.1299 72.3259 0.0000 0.0000 0.0000
# 3 72.3259 72.3259 210.4177 0.0000 0.0000 0.0000
# 4 0.0000 0.0000 0.0000 58.4581 0.0000 0.0000
# 5 0.0000 0.0000 0.0000 0.0000 58.4581 0.0000
# 6 0.0000 0.0000 0.0000 0.0000 0.0000 33.2209
#
#
#
# Elastic Compliance Matrix: (Units=1/GPa)
#
#
# Indices 1 2 3 4 5 6 
#
# 1 0.010778 -0.000783 -0.003436 0.000000 0.000000 0.000000
# 2 -0.000783 0.010778 -0.003436 0.000000 0.000000 0.000000
# 3 -0.003436 -0.003436 0.007114 0.000000 0.000000 0.000000
# 4 0.000000 0.000000 0.000000 0.017106 0.000000 0.000000
# 5 0.000000 0.000000 0.000000 0.000000 0.017106 0.000000
# 6 0.000000 0.000000 0.000000 0.000000 0.000000 0.030101
#
#
# Mechanical properties :
#
#
# Convention : Reuss Voigt Hill
#
# Bulk Modulus (GPa) = 74.83515 88.80530 81.82022
# Shear Modulus (GPa) = 44.34661 48.05356 46.20009
#
# Velocity S-wave (km/s) = 4.03714 4.20249 4.12064
# Velocity P-wave (km/s) = 7.01678 7.49574 7.26021
#
# Compressibility (1/GPa) = 0.01336270
#
# Stress axis : x y z
#
# Youngs Moduli (GPa) = 92.77750 92.77778 140.56021
#
# Poissons Ratio (x) = 0.07262 0.48294
# Poissons Ratio (y) = 0.07262 0.48293
# Poissons Ratio (z) = 0.31876 0.31876
#
# Static dielectric constant tensor:
#      x y z
#    x 2.248880 0.000000 0.000000 
#    y 0.000000 2.248880 0.000000 
#    z 0.000000 0.000000 2.020790 
# 
# From -- ./inp_files/2453.got.cif
#   From: 2010.05.17/outbox.cif.g08.bks.cpg/sg92_2_cif.got.tgz:2453.got - 2010.06.03 19:35:17.
