data_PCOD9549905
_publ_section_title
;
Structure prediction by ZEFSAII (Michael W. Deem and Ramdas Pophale) SiO2 
 PCOD9549905
Probable space group: P 42 2 2
;
_chemical_formula_sum "Si O2"
_cell_formula_units_Z 36
_cell_length_a 15.000000
_cell_length_b 15.000000
_cell_length_c 9.000000
_cell_angle_alpha 90.000000
_cell_angle_beta 90.000000
_cell_angle_gamma 90.000000
_cell_volume 2025.000000
_symmetry_space_group_name_H-M "P 42 2 2"
_symmetry_group_IT_number 93
_symmetry_cell_setting 'tetragonal'
loop_
_space_group_symop_operation_xyz
x,y,z
-y,x,1/2+z
-x,-y,z
y,-x,1/2+z
x,-y,-z
-x,y,-z
y,x,1/2-z
-y,-x,1/2-z
loop_
_atom_site_type_symbol
_atom_site_label
_atom_site_fract_x
_atom_site_fract_y
_atom_site_fract_z
Si Si1 0.500000 0.000000 0.774637
Si Si2 0.080551 0.319636 0.273211
Si Si3 0.591770 0.828881 0.941620
Si Si4 0.196744 0.000000 0.000000
Si Si5 0.892133 0.806416 0.008995
Si Si6 0.755970 0.244031 0.250000
O O1 0.412515 0.954773 0.701191
O O2 0.549849 0.919211 0.864877
O O3 0.140846 0.351371 0.413181
O O4 0.125985 0.255219 0.153483
O O5 0.003516 0.261054 0.355450
O O6 0.660609 0.775139 0.834251
O O7 0.500000 0.781863 0.000000
O O8 0.138989 0.909994 0.984571
O O9 0.834680 0.767570 0.872323
O O10 0.000000 0.803749 0.000000
#
# Coordination Sequence:
#
# PCOD9549905 Si02
#       6
#     4   8   8   4   8   4
#     4  10  17  36  65  90 119 162 213 268 335 392
#     4  11  20  37  61  83 117 171 219 263 323 388
#     4  10  20  38  64  88 121 166 211 268 342 396
#     4  12  21  37  54  80 124 182 219 252 305 392
#     4  12  25  36  55  84 126 176 224 270 310 376
#     4  12  24  42  59  90 132 167 222 284 328 392
#
# _framework density 17.777778000000001
#
# number of rings (size 3 to 8) (size 9 to 14) (size 15 to 20)
#    0.000    0.889    4.444    6.000    0.000    0.000 
#    0.000   13.889    0.000    0.000    0.000    0.000 
#    0.000   55.111    0.000    0.000    0.000    0.000 
#
# Total GULP energy -200681.712625 kJ/mol
# GULP energy per Si atom -5574.492017 kJ/mol
# Density = 1.773731 g / cm^3
# Si number density = 17.777778 Si / 1000 Ang^3
#
#
#
# Elastic Constant Matrix: (Units=GPa)
#
#
# Indices 1 2 3 4 5 6 
#
# 1 133.6107 43.1327 53.0386 0.0000 0.0000 0.0000
# 2 43.1327 133.6111 53.0387 0.0000 0.0000 0.0000
# 3 53.0386 53.0387 98.9928 0.0000 0.0000 0.0000
# 4 0.0000 0.0000 0.0000 33.2904 0.0000 0.0000
# 5 0.0000 0.0000 0.0000 0.0000 33.2904 0.0000
# 6 0.0000 0.0000 0.0000 0.0000 0.0000 28.9029
#
#
#
# Elastic Compliance Matrix: (Units=1/GPa)
#
#
# Indices 1 2 3 4 5 6 
#
# 1 0.009696 -0.001356 -0.004468 0.000000 0.000000 0.000000
# 2 -0.001356 0.009696 -0.004468 0.000000 0.000000 0.000000
# 3 -0.004468 -0.004468 0.014890 0.000000 0.000000 0.000000
# 4 0.000000 0.000000 0.000000 0.030039 0.000000 0.000000
# 5 0.000000 0.000000 0.000000 0.000000 0.030039 0.000000
# 6 0.000000 0.000000 0.000000 0.000000 0.000000 0.034599
#
#
# Mechanical properties :
#
#
# Convention : Reuss Voigt Hill
#
# Bulk Modulus (GPa) = 73.01352 73.84826 73.43089
# Shear Modulus (GPa) = 32.44458 33.56370 33.00414
#
# Velocity S-wave (km/s) = 4.27665 4.34978 4.31337
# Velocity P-wave (km/s) = 8.09602 8.17663 8.13642
#
# Compressibility (1/GPa) = 0.01369609
#
# Stress axis : x y z
#
# Youngs Moduli (GPa) = 103.13501 103.13526 67.16022
#
# Poissons Ratio (x) = 0.13989 0.30009
# Poissons Ratio (y) = 0.13989 0.30009
# Poissons Ratio (z) = 0.46083 0.46083
#
# Static dielectric constant tensor:
#      x y z
#    x 1.635150 0.000000 0.000000 
#    y 0.000000 1.635150 0.000000 
#    z 0.000000 0.000000 1.673100 
# 
# From -- ./inp_files/1755.got.cif
#   From: 2010.05.17/outbox.ucp.g08.bks.cvg/sg93_1_cif.got.tgz:1755.got - 2010.06.11 10:36:56.
