data_PCOD9549888
_publ_section_title
;
Structure prediction by ZEFSAII (Michael W. Deem and Ramdas Pophale) SiO2 
 PCOD9549888
Probable space group: P 42 2 2
;
_chemical_formula_sum "Si O2"
_cell_formula_units_Z 20
_cell_length_a 5.228536
_cell_length_b 5.228536
_cell_length_c 28.583365
_cell_angle_alpha 90.000000
_cell_angle_beta 90.000000
_cell_angle_gamma 90.000000
_cell_volume 781.400276
_symmetry_space_group_name_H-M "P 42 2 2"
_symmetry_group_IT_number 93
_symmetry_cell_setting 'tetragonal'
loop_
_space_group_symop_operation_xyz
x,y,z
-y,x,1/2+z
-x,-y,z
y,-x,1/2+z
x,-y,-z
-x,y,-z
y,x,1/2-z
-y,-x,1/2-z
loop_
_atom_site_type_symbol
_atom_site_label
_atom_site_fract_x
_atom_site_fract_y
_atom_site_fract_z
Si Si1 0.249866 0.171117 0.078509
Si Si2 0.000000 0.500000 0.000000
Si Si3 0.000000 0.000000 0.750000
Si Si4 0.333124 0.735519 0.817247
O O1 0.279204 0.311501 0.128064
O O2 0.500000 0.000000 0.070766
O O3 0.000000 0.000000 0.084952
O O4 0.183592 0.341827 0.034177
O O5 0.924723 0.219188 0.787657
O O6 0.500000 0.500000 0.800105
O O7 0.500000 0.000000 0.813759
#
# Coordination Sequence:
#
# PCOD9549888 Si02
#       4
#     8   2   2   8
#     4  11  28  54  77 120 166 214 277 351 422 511
#     4  12  30  50  92 116 168 222 290 338 442 500
#     4  12  26  48  86 116 164 220 286 358 420 512
#     4  11  28  51  81 118 169 218 282 348 429 506
#
# _framework density 25.595081
#
# number of rings (size 3 to 8) (size 9 to 14) (size 15 to 20)
#    0.000    0.800    2.000    1.200   16.800    4.800 
#    0.000    0.000    0.000    0.000    0.000    0.000 
#    0.000    0.000    0.000    0.000    0.000    0.000 
#
# Total GULP energy -112022.965948 kJ/mol
# GULP energy per Si atom -5601.148297 kJ/mol
# Density = 2.553683 g / cm^3
# Si number density = 25.595081 Si / 1000 Ang^3
#
#
#
# Elastic Constant Matrix: (Units=GPa)
#
#
# Indices 1 2 3 4 5 6 
#
# 1 155.7466 77.7617 70.7785 0.0000 0.0000 0.0000
# 2 77.7617 155.7466 70.7785 0.0000 0.0000 0.0000
# 3 70.7785 70.7785 265.2710 0.0000 0.0000 0.0000
# 4 0.0000 0.0000 0.0000 -423.8074 0.0000 0.0000
# 5 0.0000 0.0000 0.0000 0.0000 -423.8074 0.0000
# 6 0.0000 0.0000 0.0000 0.0000 0.0000 33.6248
#
#
#
# Elastic Compliance Matrix: (Units=1/GPa)
#
#
# Indices 1 2 3 4 5 6 
#
# 1 0.008966 -0.003857 -0.001363 0.000000 0.000000 0.000000
# 2 -0.003857 0.008966 -0.001363 0.000000 0.000000 0.000000
# 3 -0.001363 -0.001363 0.004497 0.000000 0.000000 0.000000
# 4 0.000000 0.000000 0.000000 -0.002360 0.000000 0.000000
# 5 0.000000 0.000000 0.000000 0.000000 -0.002360 0.000000
# 6 0.000000 0.000000 0.000000 0.000000 0.000000 0.029740
#
#
# Mechanical properties :
#
#
# Convention : Reuss Voigt Hill
#
# Bulk Modulus (GPa) = 107.96398 112.82241 110.39319
# Shear Modulus (GPa) = 78.48813 -138.96831 -30.24009
#
# Velocity S-wave (km/s) = 5.54364 -7.37650 -3.44100
# Velocity P-wave (km/s) = 9.12409 5.32682 5.23803
#
# Compressibility (1/GPa) = 0.00926235
#
# Stress axis : x y z
#
# Youngs Moduli (GPa) = 111.53341 111.53341 222.36388
#
# Poissons Ratio (x) = 0.43019 0.30311
# Poissons Ratio (y) = 0.43019 0.30311
# Poissons Ratio (z) = 0.15203 0.15203
#
# Static dielectric constant tensor:
#      x y z
#    x 2.018790 0.000000 0.000000 
#    y 0.000000 2.018790 0.000000 
#    z 0.000000 0.000000 2.050690 
# 
# From -- ./inp_files/7094.got.cif
#   From: 2010.05.17/outbox.cif.g08.bks.cpg/sg93_4_cif.got.tgz:7094.got - 2010.06.03 19:38:44.
