data_PCOD9549686
_publ_section_title
;
Structure prediction by ZEFSAII (Michael W. Deem and Ramdas Pophale) SiO2 
 PCOD9549686
Probable space group: P 42 2 2
;
_chemical_formula_sum "Si O2"
_cell_formula_units_Z 48
_cell_length_a 12.128905
_cell_length_b 12.128905
_cell_length_c 14.956925
_cell_angle_alpha 90.000000
_cell_angle_beta 90.000000
_cell_angle_gamma 90.000000
_cell_volume 2200.318270
_symmetry_space_group_name_H-M "P 42 2 2"
_symmetry_group_IT_number 93
_symmetry_cell_setting 'tetragonal'
loop_
_space_group_symop_operation_xyz
x,y,z
-y,x,1/2+z
-x,-y,z
y,-x,1/2+z
x,-y,-z
-x,y,-z
y,x,1/2-z
-y,-x,1/2-z
loop_
_atom_site_type_symbol
_atom_site_label
_atom_site_fract_x
_atom_site_fract_y
_atom_site_fract_z
Si Si1 0.676154 0.507107 0.141385
Si Si2 0.174096 0.996545 0.892542
Si Si3 0.583479 0.910122 0.856776
Si Si4 0.003455 0.825904 0.892542
Si Si5 0.416521 0.910122 0.356776
Si Si6 0.507107 0.323846 0.858615
O O1 0.791177 0.456360 0.107930
O O2 0.683416 0.515067 0.250000
O O3 0.624736 0.624736 0.110203
O O4 0.583888 0.416112 0.121485
O O5 0.123379 0.876621 0.865484
O O6 0.294417 0.040800 0.868673
O O7 0.086691 0.086691 0.858912
O O8 0.170675 0.000000 0.000000
O O9 0.569237 0.901983 0.750000
O O10 0.543640 0.791177 0.892070
O O11 0.500000 0.000000 0.893436
O O12 0.959200 0.705583 0.868673
O O13 0.000000 0.829325 0.000000
O O14 0.500000 0.000000 0.393436
#
# Coordination Sequence:
#
# PCOD9549686 Si02
#       6
#     8   8   8   8   8   8
#     4   8  14  26  44  65  92 127 162 194 231 281
#     4   9  19  36  55  74  99 134 176 219 263 314
#     4  10  20  31  47  75 106 134 166 208 259 312
#     4   9  19  36  55  74  99 134 176 219 263 314
#     4  10  20  31  47  75 106 134 166 208 259 312
#     4   8  14  26  44  65  92 127 162 194 231 281
#
# _framework density 21.815027000000001
#
# number of rings (size 3 to 8) (size 9 to 14) (size 15 to 20)
#    0.000    3.000    0.000    3.000    0.000    4.667 
#    0.000    5.000    0.000    0.000    0.000    0.000 
#    0.000    8.000    0.000    0.333    0.000    0.000 
#
# Total GULP energy -267227.653475 kJ/mol
# GULP energy per Si atom -5567.242781 kJ/mol
# Density = 2.176538 g / cm^3
# Si number density = 21.815027 Si / 1000 Ang^3
#
#
#
# Elastic Constant Matrix: (Units=GPa)
#
#
# Indices 1 2 3 4 5 6 
#
# 1 154.4929 147.0168 1.3100 0.0000 0.0000 0.0000
# 2 147.0168 154.4929 1.3100 0.0000 0.0000 0.0000
# 3 1.3100 1.3100 46.4937 0.0000 0.0000 0.0000
# 4 0.0000 0.0000 0.0000 -1.3460 0.0000 0.0000
# 5 0.0000 0.0000 0.0000 0.0000 -1.3460 0.0000
# 6 0.0000 0.0000 0.0000 0.0000 0.0000 37.2967
#
#
#
# Elastic Compliance Matrix: (Units=1/GPa)
#
#
# Indices 1 2 3 4 5 6 
#
# 1 0.068538 -0.065221 -0.000093 0.000000 0.000000 0.000000
# 2 -0.065221 0.068538 -0.000093 0.000000 0.000000 0.000000
# 3 -0.000093 -0.000093 0.021514 0.000000 0.000000 0.000000
# 4 0.000000 0.000000 0.000000 -0.742947 0.000000 0.000000
# 5 0.000000 0.000000 0.000000 0.000000 -0.742947 0.000000
# 6 0.000000 0.000000 0.000000 0.000000 0.000000 0.026812
#
#
# Mechanical properties :
#
#
# Convention : Reuss Voigt Hill
#
# Bulk Modulus (GPa) = 36.00418 72.75036 54.37727
# Shear Modulus (GPa) = -4.30879 20.64380 8.16751
#
# Velocity S-wave (km/s) = -1.40692 3.07955 1.93704
# Velocity P-wave (km/s) = 3.72839 6.78719 5.47571
#
# Compressibility (1/GPa) = 0.02777455
#
# Stress axis : x y z
#
# Youngs Moduli (GPa) = 14.59045 14.59045 46.48235
#
# Poissons Ratio (x) = 0.95160 0.00434
# Poissons Ratio (y) = 0.95160 0.00434
# Poissons Ratio (z) = 0.00136 0.00136
#
# Static dielectric constant tensor:
#      x y z
#    x 1.831060 0.000000 0.000000 
#    y 0.000000 1.831060 0.000000 
#    z 0.000000 0.000000 1.829570 
# 
# From -- ./inp_files/5389.got.cif
#   From: 2010.05.17/outbox.cif.g08.bks.cpg/sg93_3_cif.got.tgz:5389.got - 2010.06.03 19:38:44.
