data_PCOD9549937
_publ_section_title
;
Structure prediction by ZEFSAII (Michael W. Deem and Ramdas Pophale) SiO2 
 PCOD9549937
Probable space group: P 42 21 2
;
_chemical_formula_sum "Si O2"
_cell_formula_units_Z 26
_cell_length_a 8.668060
_cell_length_b 8.668060
_cell_length_c 13.673697
_cell_angle_alpha 90.000000
_cell_angle_beta 90.000000
_cell_angle_gamma 90.000000
_cell_volume 1027.376836
_symmetry_space_group_name_H-M "P 42 21 2"
_symmetry_group_IT_number 94
_symmetry_cell_setting 'tetragonal'
loop_
_space_group_symop_operation_xyz
x,y,z
1/2-y,1/2+x,1/2+z
-x,-y,z
1/2+y,1/2-x,1/2+z
1/2+x,1/2-y,1/2-z
1/2-x,1/2+y,1/2-z
y,x,-z
-y,-x,-z
loop_
_atom_site_type_symbol
_atom_site_label
_atom_site_fract_x
_atom_site_fract_y
_atom_site_fract_z
Si Si1 0.500000 0.500000 0.000000
Si Si2 0.955816 0.335056 0.515661
Si Si3 0.613883 0.138443 0.777563
Si Si4 0.653513 0.423869 0.637083
O O1 0.486541 0.323341 0.044006
O O2 0.788564 0.375827 0.562116
O O3 0.000000 0.500000 0.469271
O O4 0.056799 0.309068 0.614574
O O5 0.617990 0.273848 0.700796
O O6 0.500000 0.000000 0.749897
O O7 0.776830 0.056894 0.793420
O O8 0.500000 0.500000 0.597031
#
# Coordination Sequence:
#
# PCOD9549937 Si02
#       4
#     2   8   8   8
#     4  12  24  48  70  78 136 184 204 268 316 370
#     4   9  23  43  59  92 121 165 220 253 309 394
#     4   9  19  33  56  90 128 156 199 256 323 386
#     4  10  18  34  58  92 125 153 200 267 322 382
#
# _framework density 25.307169999999999
#
# number of rings (size 3 to 8) (size 9 to 14) (size 15 to 20)
#    0.000    3.077    0.000    3.692    6.462    0.000 
#   11.077    0.000    0.000    0.000    0.000    0.000 
#    0.000    0.000    0.000    0.000    0.000    0.000 
#
# Total GULP energy -145059.352921 kJ/mol
# GULP energy per Si atom -5579.205882 kJ/mol
# Density = 2.524957 g / cm^3
# Si number density = 25.307170 Si / 1000 Ang^3
#
#
#
# Elastic Constant Matrix: (Units=GPa)
#
#
# Indices 1 2 3 4 5 6 
#
# 1 165.1398 87.3617 32.2578 0.0000 0.0000 0.0000
# 2 87.3617 165.1398 32.2578 0.0000 0.0000 0.0000
# 3 32.2578 32.2578 84.0589 0.0000 0.0000 0.0000
# 4 0.0000 0.0000 0.0000 -5.2082 0.0000 0.0000
# 5 0.0000 0.0000 0.0000 0.0000 -5.2082 0.0000
# 6 0.0000 0.0000 0.0000 0.0000 0.0000 57.8816
#
#
#
# Elastic Compliance Matrix: (Units=1/GPa)
#
#
# Indices 1 2 3 4 5 6 
#
# 1 0.008624 -0.004233 -0.001685 0.000000 0.000000 0.000000
# 2 -0.004233 0.008624 -0.001685 0.000000 0.000000 0.000000
# 3 -0.001685 -0.001685 0.013190 0.000000 0.000000 0.000000
# 4 0.000000 0.000000 0.000000 -0.192006 0.000000 0.000000
# 5 0.000000 0.000000 0.000000 0.000000 -0.192006 0.000000
# 6 0.000000 0.000000 0.000000 0.000000 0.000000 0.017277
#
#
# Mechanical properties :
#
#
# Convention : Reuss Voigt Hill
#
# Bulk Modulus (GPa) = 65.65382 79.78814 72.72098
# Shear Modulus (GPa) = -15.82202 26.99046 5.58422
#
# Velocity S-wave (km/s) = -2.50311 3.26930 1.48707
# Velocity P-wave (km/s) = 4.20060 6.77107 5.63438
#
# Compressibility (1/GPa) = 0.01523141
#
# Stress axis : x y z
#
# Youngs Moduli (GPa) = 115.95550 115.95550 75.81686
#
# Poissons Ratio (x) = 0.49085 0.12775
# Poissons Ratio (y) = 0.49085 0.12775
# Poissons Ratio (z) = 0.19539 0.19539
#
# Static dielectric constant tensor:
#      x y z
#    x 2.069760 0.000000 0.000000 
#    y 0.000000 2.069760 0.000000 
#    z 0.000000 0.000000 1.953000 
# 
# From -- ./inp_files/3718.got.cif
#   From: 2010.05.17/outbox.cif.g08.bks.cpg/sg94_2_cif.got.tgz:3718.got - 2010.06.03 19:43:16.
