data_PCOD9549879
_publ_section_title
;
Structure prediction by ZEFSAII (Michael W. Deem and Ramdas Pophale) SiO2 
 PCOD9549879
Probable space group: P 42 2 2
;
_chemical_formula_sum "Si O2"
_cell_formula_units_Z 36
_cell_length_a 14.178336
_cell_length_b 14.178336
_cell_length_c 7.827928
_cell_angle_alpha 90.000000
_cell_angle_beta 90.000000
_cell_angle_gamma 90.000000
_cell_volume 1573.610884
_symmetry_space_group_name_H-M "P 42 2 2"
_symmetry_group_IT_number 93
_symmetry_cell_setting 'tetragonal'
loop_
_space_group_symop_operation_xyz
x,y,z
-y,x,1/2+z
-x,-y,z
y,-x,1/2+z
x,-y,-z
-x,y,-z
y,x,1/2-z
-y,-x,1/2-z
loop_
_atom_site_type_symbol
_atom_site_label
_atom_site_fract_x
_atom_site_fract_y
_atom_site_fract_z
Si Si1 0.429398 0.728276 0.351476
Si Si2 0.500000 0.258274 0.000000
Si Si3 0.201280 0.079077 0.875421
Si Si4 0.242003 0.300244 0.437237
Si Si5 0.952731 0.597477 0.811753
O O1 0.500000 0.700807 0.500000
O O2 0.471430 0.688028 0.173993
O O3 0.326815 0.706794 0.427513
O O4 0.426640 0.841770 0.328659
O O5 0.406362 0.202945 0.052161
O O6 0.124724 0.124724 0.750000
O O7 0.300575 0.044107 0.785545
O O8 0.230382 0.163811 0.999903
O O9 0.162418 0.000000 0.000000
O O10 0.278399 0.278399 0.250000
O O11 0.000000 0.500000 0.740641
O O12 0.000000 0.610562 0.000000
#
# Coordination Sequence:
#
# PCOD9549879 Si02
#       5
#     8   4   8   8   8
#     4  12  23  44  71 109 157 197 249 316 404 459
#     4  12  24  42  72 104 150 208 260 308 388 484
#     4  12  28  47  75 112 152 203 262 326 401 478
#     4  12  26  46  74 109 158 208 252 330 403 468
#     4  11  24  41  71 116 152 187 246 324 396 465
#
# _framework density 22.877323000000001
#
# number of rings (size 3 to 8) (size 9 to 14) (size 15 to 20)
#    0.000    0.222    8.889    0.667    6.222    0.444 
#    0.000    0.556    0.000    9.333    0.000    0.000 
#    0.000    0.000    0.000    0.000    0.000    0.000 
#
# Total GULP energy -200996.491261 kJ/mol
# GULP energy per Si atom -5583.235868 kJ/mol
# Density = 2.282525 g / cm^3
# Si number density = 22.877323 Si / 1000 Ang^3
#
#
#
# Elastic Constant Matrix: (Units=GPa)
#
#
# Indices 1 2 3 4 5 6 
#
# 1 115.1734 36.6483 50.2300 0.0000 0.0000 0.0000
# 2 36.6483 115.1734 50.2300 0.0000 0.0000 0.0000
# 3 50.2300 50.2300 202.3794 0.0000 0.0000 0.0000
# 4 0.0000 0.0000 0.0000 44.7269 0.0000 0.0000
# 5 0.0000 0.0000 0.0000 0.0000 44.7269 0.0000
# 6 0.0000 0.0000 0.0000 0.0000 0.0000 31.5223
#
#
#
# Elastic Compliance Matrix: (Units=1/GPa)
#
#
# Indices 1 2 3 4 5 6 
#
# 1 0.010308 -0.002427 -0.001956 0.000000 0.000000 0.000000
# 2 -0.002427 0.010308 -0.001956 0.000000 0.000000 0.000000
# 3 -0.001956 -0.001956 0.005912 0.000000 0.000000 0.000000
# 4 0.000000 0.000000 0.000000 0.022358 0.000000 0.000000
# 5 0.000000 0.000000 0.000000 0.000000 0.022358 0.000000
# 6 0.000000 0.000000 0.000000 0.000000 0.000000 0.031724
#
#
# Mechanical properties :
#
#
# Convention : Reuss Voigt Hill
#
# Bulk Modulus (GPa) = 72.20223 78.54922 75.37573
# Shear Modulus (GPa) = 41.57590 43.90306 42.73948
#
# Velocity S-wave (km/s) = 4.26765 4.38547 4.32696
# Velocity P-wave (km/s) = 7.47750 7.74936 7.61464
#
# Compressibility (1/GPa) = 0.01384999
#
# Stress axis : x y z
#
# Youngs Moduli (GPa) = 97.01319 97.01319 169.14228
#
# Poissons Ratio (x) = 0.23544 0.33085
# Poissons Ratio (y) = 0.23544 0.33085
# Poissons Ratio (z) = 0.18976 0.18976
#
# Static dielectric constant tensor:
#      x y z
#    x 1.874990 0.000000 0.000000 
#    y 0.000000 1.874990 0.000000 
#    z 0.000000 0.000000 1.892860 
# 
# From -- ./inp_files/1684.got.cif
#   From: 2010.05.17/outbox.cif.g08.bks.cpg/sg93_1_cif.got.tgz:1684.got - 2010.06.03 19:38:44.
