data_PCOD9549848
_publ_section_title
;
Structure prediction by ZEFSAII (Michael W. Deem and Ramdas Pophale) SiO2 
 PCOD9549848
Probable space group: P 42 2 2
;
_chemical_formula_sum "Si O2"
_cell_formula_units_Z 40
_cell_length_a 14.937261
_cell_length_b 14.937261
_cell_length_c 9.578059
_cell_angle_alpha 90.000000
_cell_angle_beta 90.000000
_cell_angle_gamma 90.000000
_cell_volume 2137.073441
_symmetry_space_group_name_H-M "P 42 2 2"
_symmetry_group_IT_number 93
_symmetry_cell_setting 'tetragonal'
loop_
_space_group_symop_operation_xyz
x,y,z
-y,x,1/2+z
-x,-y,z
y,-x,1/2+z
x,-y,-z
-x,y,-z
y,x,1/2-z
-y,-x,1/2-z
loop_
_atom_site_type_symbol
_atom_site_label
_atom_site_fract_x
_atom_site_fract_y
_atom_site_fract_z
Si Si1 0.402085 0.894323 0.535554
Si Si2 0.297372 0.838578 0.775228
Si Si3 0.600750 0.105139 0.033219
Si Si4 0.978349 0.149469 0.834266
Si Si5 0.857433 0.280783 0.209812
O O1 0.500000 0.861330 0.500000
O O2 0.385548 0.869697 0.694788
O O3 0.322786 0.853460 0.443474
O O4 0.397866 0.000000 0.500000
O O5 0.260417 0.739584 0.750000
O O6 0.223875 0.903108 0.701911
O O7 0.320626 0.854538 0.935599
O O8 0.636690 0.118164 0.189406
O O9 0.500000 0.139310 0.000000
O O10 0.599586 0.000000 0.000000
O O11 0.935867 0.064134 0.750000
O O12 0.066624 0.202760 0.781300
O O13 0.000000 0.131748 0.000000
O O14 0.765310 0.234691 0.250000
#
# Coordination Sequence:
#
# PCOD9549848 Si02
#       5
#     8   8   8   8   8
#     4  11  20  37  59  81 111 151 196 242 302 363
#     4  11  20  36  59  81 117 153 199 239 298 354
#     4  11  22  36  55  86 120 155 193 248 319 375
#     4  11  23  41  60  81 119 165 212 251 291 340
#     4  12  23  37  58  85 118 152 207 246 293 346
#
# _framework density 18.717184
#
# number of rings (size 3 to 8) (size 9 to 14) (size 15 to 20)
#    0.000    0.800    6.000    2.400    2.800    3.600 
#    0.000    2.000    0.000    0.000    0.000    0.000 
#    0.000   56.000    0.000    0.000    0.000    0.000 
#
# Total GULP energy -222923.918208 kJ/mol
# GULP energy per Si atom -5573.097955 kJ/mol
# Density = 1.867458 g / cm^3
# Si number density = 18.717184 Si / 1000 Ang^3
#
#
#
# Elastic Constant Matrix: (Units=GPa)
#
#
# Indices 1 2 3 4 5 6 
#
# 1 45.6139 37.9048 5.7465 0.0000 0.0000 0.0000
# 2 37.9048 45.6152 5.7458 0.0000 0.0000 0.0000
# 3 5.7465 5.7458 68.8547 0.0000 0.0000 0.0000
# 4 0.0000 0.0000 0.0000 18.8989 0.0000 0.0000
# 5 0.0000 0.0000 0.0000 0.0000 18.8957 0.0000
# 6 0.0000 0.0000 0.0000 0.0000 0.0000 10.1425
#
#
#
# Elastic Compliance Matrix: (Units=1/GPa)
#
#
# Indices 1 2 3 4 5 6 
#
# 1 0.070910 -0.058797 -0.001012 0.000000 0.000000 0.000000
# 2 -0.058797 0.070908 -0.001010 0.000000 0.000000 0.000000
# 3 -0.001012 -0.001010 0.014692 0.000000 0.000000 0.000000
# 4 0.000000 0.000000 0.000000 0.052913 0.000000 0.000000
# 5 0.000000 0.000000 0.000000 0.000000 0.052922 0.000000
# 6 0.000000 0.000000 0.000000 0.000000 0.000000 0.098595
#
#
# Mechanical properties :
#
#
# Convention : Reuss Voigt Hill
#
# Bulk Modulus (GPa) = 28.67507 28.76423 28.71965
# Shear Modulus (GPa) = 10.11735 16.96654 13.54194
#
# Velocity S-wave (km/s) = 2.32747 3.01403 2.69272
# Velocity P-wave (km/s) = 4.75145 5.24535 5.00449
#
# Compressibility (1/GPa) = 0.03487350
#
# Stress axis : x y z
#
# Youngs Moduli (GPa) = 14.10236 14.10282 68.06402
#
# Poissons Ratio (x) = 0.82920 0.06885
# Poissons Ratio (y) = 0.82917 0.06875
# Poissons Ratio (z) = 0.01427 0.01425
#
# Static dielectric constant tensor:
#      x y z
#    x 1.684360 0.000000 0.000000 
#    y 0.000000 1.684360 0.000000 
#    z 0.000000 0.000000 1.557480 
# 
# From -- ./inp_files/1820.got.cif
#   From: 2010.05.17/outbox.cif.g08.bks.cpg/sg93_1_cif.got.tgz:1820.got - 2010.06.03 19:38:44.
