data_PCOD9549232
_publ_section_title
;
Structure prediction by ZEFSAII (Michael W. Deem and Ramdas Pophale) SiO2 
 PCOD9549232
Probable space group: P 41 21 2
;
_chemical_formula_sum "Si O2"
_cell_formula_units_Z 48
_cell_length_a 14.614047
_cell_length_b 14.614047
_cell_length_c 10.380482
_cell_angle_alpha 90.000000
_cell_angle_beta 90.000000
_cell_angle_gamma 90.000000
_cell_volume 2216.963379
_symmetry_space_group_name_H-M "P 41 21 2"
_symmetry_group_IT_number 92
_symmetry_cell_setting 'tetragonal'
loop_
_space_group_symop_operation_xyz
x,y,z
1/2-y,1/2+x,1/4+z
-x,-y,1/2+z
1/2+y,1/2-x,3/4+z
1/2+x,1/2-y,3/4-z
1/2-x,1/2+y,1/4-z
y,x,-z
-y,-x,1/2-z
loop_
_atom_site_type_symbol
_atom_site_label
_atom_site_fract_x
_atom_site_fract_y
_atom_site_fract_z
Si Si1 0.249335 0.388027 0.510663
Si Si2 0.210257 0.580660 0.841679
Si Si3 0.751307 0.959053 0.458335
Si Si4 0.929570 0.552020 0.425962
Si Si5 0.116525 0.156504 0.813199
Si Si6 0.373413 0.521310 0.657517
O O1 0.284405 0.284405 0.500000
O O2 0.145068 0.375075 0.554906
O O3 0.250387 0.453065 0.384871
O O4 0.323914 0.429265 0.610855
O O5 0.170513 0.482204 0.882462
O O6 0.286995 0.569864 0.731124
O O7 0.258659 0.622375 0.967097
O O8 0.654279 0.938618 0.521365
O O9 0.787095 0.872540 0.375505
O O10 0.822135 0.958004 0.577556
O O11 0.957623 0.490652 0.548319
O O12 0.095537 0.070779 0.723022
O O13 0.460107 0.539894 0.750000
#
# Coordination Sequence:
#
# PCOD9549232 Si02
#       6
#     8   8   8   8   8   8
#     4  11  23  40  65  98 128 177 226 267 326 411
#     4  11  21  40  64  92 130 167 218 273 335 401
#     4  10  22  40  63  90 128 169 216 267 336 389
#     4  12  24  38  61  97 135 171 213 274 338 409
#     4   9  19  41  63  86 124 171 211 271 332 393
#     4   9  20  39  64  90 127 173 215 270 332 384
#
# _framework density 21.651235
#
# number of rings (size 3 to 8) (size 9 to 14) (size 15 to 20)
#    0.000    1.667    1.667    3.500    0.000    5.333 
#    6.000    0.000    0.000    0.000    0.000    0.000 
#    0.000    0.000    0.000    0.000    0.000    0.000 
#
# Total GULP energy -267488.211399 kJ/mol
# GULP energy per Si atom -5572.671071 kJ/mol
# Density = 2.160196 g / cm^3
# Si number density = 21.651235 Si / 1000 Ang^3
#
#
#
# Elastic Constant Matrix: (Units=GPa)
#
#
# Indices 1 2 3 4 5 6 
#
# 1 61.9668 20.3599 20.4118 0.0000 0.0000 0.0000
# 2 20.3599 61.9668 20.4112 0.0000 0.0000 0.0000
# 3 20.4118 20.4112 91.8010 0.0000 0.0000 0.0000
# 4 0.0000 0.0000 0.0000 31.4712 0.0000 0.0000
# 5 0.0000 0.0000 0.0000 0.0000 31.4712 0.0000
# 6 0.0000 0.0000 0.0000 0.0000 0.0000 25.4634
#
#
#
# Elastic Compliance Matrix: (Units=1/GPa)
#
#
# Indices 1 2 3 4 5 6 
#
# 1 0.018843 -0.005191 -0.003036 0.000000 0.000000 0.000000
# 2 -0.005191 0.018843 -0.003035 0.000000 0.000000 0.000000
# 3 -0.003036 -0.003035 0.012243 0.000000 0.000000 0.000000
# 4 0.000000 0.000000 0.000000 0.031775 0.000000 0.000000
# 5 0.000000 0.000000 0.000000 0.000000 0.031775 0.000000
# 6 0.000000 0.000000 0.000000 0.000000 0.000000 0.039272
#
#
# Mechanical properties :
#
#
# Convention : Reuss Voigt Hill
#
# Bulk Modulus (GPa) = 36.48965 37.56669 37.02817
# Shear Modulus (GPa) = 27.11339 27.98463 27.54901
#
# Velocity S-wave (km/s) = 3.54259 3.59906 3.57094
# Velocity P-wave (km/s) = 5.79856 5.88723 5.84306
#
# Compressibility (1/GPa) = 0.02740503
#
# Stress axis : x y z
#
# Youngs Moduli (GPa) = 53.06951 53.06969 81.67966
#
# Poissons Ratio (x) = 0.27550 0.24794
# Poissons Ratio (y) = 0.27550 0.24793
# Poissons Ratio (z) = 0.16109 0.16108
#
# Static dielectric constant tensor:
#      x y z
#    x 1.800770 0.000000 0.000000 
#    y 0.000000 1.800770 0.000000 
#    z 0.000000 0.000000 1.843710 
# 
# From -- ./inp_files/2176.got.cif
#   From: 2010.05.17/outbox.cif.g08.bks.cpg/sg92_2_cif.got.tgz:2176.got - 2010.06.03 19:35:17.
