data_PCOD9549856
_publ_section_title
;
Structure prediction by ZEFSAII (Michael W. Deem and Ramdas Pophale) SiO2 
 PCOD9549856
Probable space group: P 42 2 2
;
_chemical_formula_sum "Si O2"
_cell_formula_units_Z 40
_cell_length_a 14.269500
_cell_length_b 14.269500
_cell_length_c 9.809738
_cell_angle_alpha 90.000000
_cell_angle_beta 90.000000
_cell_angle_gamma 90.000000
_cell_volume 1997.445415
_symmetry_space_group_name_H-M "P 42 2 2"
_symmetry_group_IT_number 93
_symmetry_cell_setting 'tetragonal'
loop_
_space_group_symop_operation_xyz
x,y,z
-y,x,1/2+z
-x,-y,z
y,-x,1/2+z
x,-y,-z
-x,y,-z
y,x,1/2-z
-y,-x,1/2-z
loop_
_atom_site_type_symbol
_atom_site_label
_atom_site_fract_x
_atom_site_fract_y
_atom_site_fract_z
Si Si1 0.346476 0.796948 0.733399
Si Si2 0.865280 0.079961 0.392237
Si Si3 0.711211 0.109904 0.994412
Si Si4 0.889200 0.536656 0.687046
Si Si5 0.096668 0.345714 0.948931
O O1 0.308480 0.691521 0.750000
O O2 0.447303 0.822555 0.794896
O O3 0.337778 0.834935 0.578893
O O4 0.282510 0.854985 0.839439
O O5 0.920171 0.079830 0.250000
O O6 0.869185 0.188146 0.440238
O O7 0.753200 0.067227 0.380827
O O8 0.895321 0.000000 0.500000
O O9 0.614947 0.138214 0.073757
O O10 0.702461 0.000000 0.000000
O O11 0.871072 0.589806 0.828077
O O12 0.000000 0.500000 0.673459
O O13 0.000000 0.388816 0.000000
#
# Coordination Sequence:
#
# PCOD9549856 Si02
#       5
#     8   8   8   8   8
#     4  12  25  38  59 102 145 174 218 300 380 429
#     4  11  25  45  69  97 143 196 244 288 352 435
#     4  12  24  41  66  96 137 180 241 297 350 420
#     4  12  23  40  68 100 131 175 241 311 364 420
#     4  11  21  40  67  96 130 174 234 295 355 422
#
# _framework density 20.025576999999998
#
# number of rings (size 3 to 8) (size 9 to 14) (size 15 to 20)
#    0.000    0.400    8.000    1.200    2.800    0.400 
#    0.000    1.000    0.000    0.000    0.000    2.800 
#    0.000    0.000    0.000    0.000    0.000    0.000 
#
# Total GULP energy -223025.594407 kJ/mol
# GULP energy per Si atom -5575.639860 kJ/mol
# Density = 1.998000 g / cm^3
# Si number density = 20.025577 Si / 1000 Ang^3
#
#
#
# Elastic Constant Matrix: (Units=GPa)
#
#
# Indices 1 2 3 4 5 6 
#
# 1 97.1435 35.1070 39.7210 0.0000 0.0000 0.0000
# 2 35.1070 97.1458 39.7217 0.0000 0.0000 0.0000
# 3 39.7210 39.7217 157.2731 0.0000 0.0000 0.0000
# 4 0.0000 0.0000 0.0000 45.6554 0.0000 0.0000
# 5 0.0000 0.0000 0.0000 0.0000 45.6539 0.0000
# 6 0.0000 0.0000 0.0000 0.0000 0.0000 45.8760
#
#
#
# Elastic Compliance Matrix: (Units=1/GPa)
#
#
# Indices 1 2 3 4 5 6 
#
# 1 0.012517 -0.003603 -0.002251 0.000000 0.000000 0.000000
# 2 -0.003603 0.012516 -0.002251 0.000000 0.000000 0.000000
# 3 -0.002251 -0.002251 0.007496 0.000000 0.000000 0.000000
# 4 0.000000 0.000000 0.000000 0.021903 0.000000 0.000000
# 5 0.000000 0.000000 0.000000 0.000000 0.021904 0.000000
# 6 0.000000 0.000000 0.000000 0.000000 0.000000 0.021798
#
#
# Mechanical properties :
#
#
# Convention : Reuss Voigt Hill
#
# Bulk Modulus (GPa) = 61.28272 64.51799 62.90035
# Shear Modulus (GPa) = 41.74203 43.23792 42.48997
#
# Velocity S-wave (km/s) = 4.57052 4.65169 4.61128
# Velocity P-wave (km/s) = 7.64993 7.81912 7.73499
#
# Compressibility (1/GPa) = 0.01631781
#
# Stress axis : x y z
#
# Youngs Moduli (GPa) = 79.89398 79.89573 133.41272
#
# Poissons Ratio (x) = 0.28785 0.30035
# Poissons Ratio (y) = 0.28784 0.30035
# Poissons Ratio (z) = 0.17986 0.17987
#
# Static dielectric constant tensor:
#      x y z
#    x 1.715580 0.000000 0.000000 
#    y 0.000000 1.715570 0.000000 
#    z 0.000000 0.000000 1.843720 
# 
# From -- ./inp_files/1831.got.cif
#   From: 2010.05.17/outbox.cif.g08.bks.cpg/sg93_1_cif.got.tgz:1831.got - 2010.06.03 19:38:44.
