data_PCOD9549886
_publ_section_title
;
Structure prediction by ZEFSAII (Michael W. Deem and Ramdas Pophale) SiO2 
 PCOD9549886
Probable space group: P 42 2 2
;
_chemical_formula_sum "Si O2"
_cell_formula_units_Z 20
_cell_length_a 5.205692
_cell_length_b 5.205692
_cell_length_c 28.884439
_cell_angle_alpha 90.000000
_cell_angle_beta 90.000000
_cell_angle_gamma 90.000000
_cell_volume 782.746033
_symmetry_space_group_name_H-M "P 42 2 2"
_symmetry_group_IT_number 93
_symmetry_cell_setting 'tetragonal'
loop_
_space_group_symop_operation_xyz
x,y,z
-y,x,1/2+z
-x,-y,z
y,-x,1/2+z
x,-y,-z
-x,y,-z
y,x,1/2-z
-y,-x,1/2-z
loop_
_atom_site_type_symbol
_atom_site_label
_atom_site_fract_x
_atom_site_fract_y
_atom_site_fract_z
Si Si1 0.000000 0.000000 0.000000
Si Si2 0.175390 0.762299 0.681208
Si Si3 0.748228 0.326484 0.577693
Si Si4 0.500000 0.500000 0.750000
O O1 0.850670 0.810362 0.034433
O O2 0.262021 0.803432 0.628108
O O3 0.425375 0.719907 0.712906
O O4 0.000000 0.500000 0.684566
O O5 0.000000 0.000000 0.695512
O O6 0.500000 0.500000 0.570874
O O7 0.000000 0.500000 0.580472
#
# Coordination Sequence:
#
# PCOD9549886 Si02
#       4
#     2   8   8   2
#     4  12  26  50  84 106 156 218 274 346 438 508
#     4  11  26  49  76 116 163 215 276 343 418 502
#     4  11  26  50  76 114 157 206 273 345 415 505
#     4  12  26  44  82 114 170 216 278 342 424 496
#
# _framework density 25.551072999999999
#
# number of rings (size 3 to 8) (size 9 to 14) (size 15 to 20)
#    0.000    0.800    4.000    1.200    5.600    6.400 
#    0.000    0.000    0.000    0.000    0.000    0.000 
#    0.000    0.000    0.000    0.000    0.000    0.000 
#
# Total GULP energy -111977.790103 kJ/mol
# GULP energy per Si atom -5598.889505 kJ/mol
# Density = 2.549292 g / cm^3
# Si number density = 25.551073 Si / 1000 Ang^3
#
#
#
# Elastic Constant Matrix: (Units=GPa)
#
#
# Indices 1 2 3 4 5 6 
#
# 1 171.2768 86.5189 68.9303 0.0000 0.0000 0.0000
# 2 86.5189 171.2768 68.9303 0.0000 0.0000 0.0000
# 3 68.9303 68.9303 264.0949 0.0000 0.0000 0.0000
# 4 0.0000 0.0000 0.0000 -66.7484 0.0000 0.0000
# 5 0.0000 0.0000 0.0000 0.0000 -66.7484 0.0000
# 6 0.0000 0.0000 0.0000 0.0000 0.0000 73.1553
#
#
#
# Elastic Compliance Matrix: (Units=1/GPa)
#
#
# Indices 1 2 3 4 5 6 
#
# 1 0.008153 -0.003645 -0.001177 0.000000 0.000000 0.000000
# 2 -0.003645 0.008153 -0.001177 0.000000 0.000000 0.000000
# 3 -0.001177 -0.001177 0.004401 0.000000 0.000000 0.000000
# 4 0.000000 0.000000 0.000000 -0.014982 0.000000 0.000000
# 5 0.000000 0.000000 0.000000 0.000000 -0.014982 0.000000
# 6 0.000000 0.000000 0.000000 0.000000 0.000000 0.013670
#
#
# Mechanical properties :
#
#
# Convention : Reuss Voigt Hill
#
# Bulk Modulus (GPa) = 114.80278 117.26750 116.03514
# Shear Modulus (GPa) = 258.88023 13.41631 136.14827
#
# Velocity S-wave (km/s) = 10.07664 2.29394 7.30756
# Velocity P-wave (km/s) = 13.43180 7.28088 10.80334
#
# Compressibility (1/GPa) = 0.00871059
#
# Stress axis : x y z
#
# Youngs Moduli (GPa) = 122.64972 122.64972 227.23324
#
# Poissons Ratio (x) = 0.44706 0.26738
# Poissons Ratio (y) = 0.44706 0.26738
# Poissons Ratio (z) = 0.14432 0.14432
#
# Static dielectric constant tensor:
#      x y z
#    x 2.029210 0.000000 0.000000 
#    y 0.000000 2.029210 0.000000 
#    z 0.000000 0.000000 2.038310 
# 
# From -- ./inp_files/7115.got.cif
#   From: 2010.05.17/outbox.cif.g08.bks.cpg/sg93_4_cif.got.tgz:7115.got - 2010.06.03 19:38:44.
