data_PCOD9550509
_publ_section_title
;
Structure prediction by ZEFSAII (Michael W. Deem and Ramdas Pophale) SiO2 
 PCOD9550509
Probable space group: P 43 2 2
;
_chemical_formula_sum "Si O2"
_cell_formula_units_Z 36
_cell_length_a 11.079943
_cell_length_b 11.079943
_cell_length_c 13.421262
_cell_angle_alpha 90.000000
_cell_angle_beta 90.000000
_cell_angle_gamma 90.000000
_cell_volume 1647.663067
_symmetry_space_group_name_H-M "P 43 2 2"
_symmetry_group_IT_number 95
_symmetry_cell_setting 'tetragonal'
loop_
_space_group_symop_operation_xyz
x,y,z
-y,x,3/4+z
-x,-y,1/2+z
y,-x,1/4+z
x,-y,1/2-z
-x,y,-z
y,x,1/4-z
-y,-x,3/4-z
loop_
_atom_site_type_symbol
_atom_site_label
_atom_site_fract_x
_atom_site_fract_y
_atom_site_fract_z
Si Si1 0.124113 0.385438 0.523883
Si Si2 0.142311 0.142311 0.625000
Si Si3 0.474719 0.669512 0.116682
Si Si4 0.787659 0.239305 0.661663
Si Si5 0.988496 0.822271 0.688737
O O1 0.118805 0.283705 0.608608
O O2 0.239838 0.458927 0.557159
O O3 0.141135 0.303405 0.427191
O O4 0.000000 0.455099 0.500000
O O5 0.061038 0.120543 0.719692
O O6 0.538646 0.538646 0.125000
O O7 0.337856 0.687545 0.152965
O O8 0.500000 0.706396 0.000000
O O9 0.874593 0.247583 0.758592
O O10 0.766034 0.097775 0.629184
O O11 0.921193 0.921193 0.625000
#
# Coordination Sequence:
#
# PCOD9550509 Si02
#       5
#     8   4   8   8   8
#     4  11  21  40  72 101 134 181 243 306 361 423
#     4  10  20  38  62 106 136 188 236 288 358 444
#     4  12  24  47  76 100 134 196 261 309 352 439
#     4  11  25  41  71 108 143 190 247 297 373 449
#     4  11  24  38  67 109 160 192 224 295 386 456
#
# _framework density 21.849125999999998
#
# number of rings (size 3 to 8) (size 9 to 14) (size 15 to 20)
#    0.000    0.889    5.556    2.000    4.667    1.778 
#    0.000    1.111    4.889    0.000    0.000    0.000 
#    0.000    0.000    0.000    0.000    0.000    0.000 
#
# Total GULP energy -200402.691179 kJ/mol
# GULP energy per Si atom -5566.741422 kJ/mol
# Density = 2.179940 g / cm^3
# Si number density = 21.849126 Si / 1000 Ang^3
#
#
#
# Elastic Constant Matrix: (Units=GPa)
#
#
# Indices 1 2 3 4 5 6 
#
# 1 82.3340 33.8070 -10.7207 0.0000 0.0000 0.0000
# 2 33.8070 82.3340 -10.7207 0.0000 0.0000 0.0000
# 3 -10.7207 -10.7207 20.3692 0.0000 0.0000 0.0000
# 4 0.0000 0.0000 0.0000 17.5867 0.0000 0.0000
# 5 0.0000 0.0000 0.0000 0.0000 17.5867 0.0000
# 6 0.0000 0.0000 0.0000 0.0000 0.0000 19.4541
#
#
#
# Elastic Compliance Matrix: (Units=1/GPa)
#
#
# Indices 1 2 3 4 5 6 
#
# 1 0.015072 -0.005535 0.005019 0.000000 0.000000 0.000000
# 2 -0.005535 0.015072 0.005019 0.000000 0.000000 0.000000
# 3 0.005019 0.005019 0.054377 0.000000 0.000000 0.000000
# 4 0.000000 0.000000 0.000000 0.056861 0.000000 0.000000
# 5 0.000000 0.000000 0.000000 0.000000 0.056861 0.000000
# 6 0.000000 0.000000 0.000000 0.000000 0.000000 0.051403
#
#
# Mechanical properties :
#
#
# Convention : Reuss Voigt Hill
#
# Bulk Modulus (GPa) = 10.69186 23.30757 16.99972
# Shear Modulus (GPa) = 18.39483 22.43693 20.41588
#
# Velocity S-wave (km/s) = 2.90470 3.20801 3.06012
# Velocity P-wave (km/s) = 4.01919 4.94089 4.50368
#
# Compressibility (1/GPa) = 0.09352907
#
# Stress axis : x y z
#
# Youngs Moduli (GPa) = 66.34819 66.34819 18.39000
#
# Poissons Ratio (x) = 0.36724 -0.09231
# Poissons Ratio (y) = 0.36724 -0.09231
# Poissons Ratio (z) = -0.33303 -0.33303
#
# Static dielectric constant tensor:
#      x y z
#    x 1.919300 0.000000 0.000000 
#    y 0.000000 1.919300 0.000000 
#    z 0.000000 0.000000 1.815170 
# 
# From -- ./inp_files/4687.got.cif
#   From: 2010.05.17/outbox.cif.g08.bks.cpg/sg95_3_cif.got.tgz:4687.got - 2010.06.03 19:46:49.
