data_PCOD9550607
_publ_section_title
;
Structure prediction by ZEFSAII (Michael W. Deem and Ramdas Pophale) SiO2 
 PCOD9550607
Probable space group: P 43 2 2
;
_chemical_formula_sum "Si O2"
_cell_formula_units_Z 60
_cell_length_a 11.562591
_cell_length_b 11.562591
_cell_length_c 22.424095
_cell_angle_alpha 90.000000
_cell_angle_beta 90.000000
_cell_angle_gamma 90.000000
_cell_volume 2997.955983
_symmetry_space_group_name_H-M "P 43 2 2"
_symmetry_group_IT_number 95
_symmetry_cell_setting 'tetragonal'
loop_
_space_group_symop_operation_xyz
x,y,z
-y,x,3/4+z
-x,-y,1/2+z
y,-x,1/4+z
x,-y,1/2-z
-x,y,-z
y,x,1/4-z
-y,-x,3/4-z
loop_
_atom_site_type_symbol
_atom_site_label
_atom_site_fract_x
_atom_site_fract_y
_atom_site_fract_z
Si Si1 0.810869 0.102506 0.526896
Si Si2 0.748990 0.135478 0.660940
Si Si3 0.501813 0.224267 0.331900
Si Si4 0.587882 0.902351 0.051509
Si Si5 0.909300 0.000000 0.750000
Si Si6 0.125713 0.634806 0.021693
Si Si7 0.397452 0.838941 0.592166
Si Si8 0.521582 0.592472 0.430956
O O1 0.749979 0.100561 0.591437
O O2 0.716607 0.104555 0.474611
O O3 0.873753 0.226354 0.524820
O O4 0.897479 0.995427 0.520245
O O5 0.615813 0.151165 0.679958
O O6 0.825608 0.046374 0.698165
O O7 0.809863 0.261436 0.667971
O O8 0.564504 0.172893 0.389878
O O9 0.587692 0.215159 0.276439
O O10 0.459027 0.354721 0.339114
O O11 0.568632 0.037294 0.066389
O O12 0.500000 0.864117 0.000000
O O13 0.154625 0.588087 0.086666
O O14 0.000000 0.596231 0.000000
O O15 0.467899 0.731112 0.567424
O O16 0.500000 0.553359 0.500000
O O17 0.439503 0.560498 0.375000
#
# Coordination Sequence:
#
# PCOD9550607 Si02
#       8
#     8   8   8   8   4   8   8   8
#     4  11  24  41  62  98 130 172 215 266 336 403
#     4  10  23  42  62  93 135 169 215 277 319 394
#     4  11  25  42  66 100 128 174 225 275 337 390
#     4  12  23  41  68  92 133 173 214 274 334 398
#     4  12  22  40  70  94 134 178 216 264 338 406
#     4  11  22  40  64  96 130 166 218 281 332 401
#     4  10  22  43  67  92 131 169 221 274 336 395
#     4  11  25  46  70  98 137 180 229 284 338 411
#
# _framework density 20.013636999999999
#
# number of rings (size 3 to 8) (size 9 to 14) (size 15 to 20)
#    0.000    1.067    4.667    1.600    2.800    0.533 
#    2.400    0.000    0.000    0.000    0.000    0.000 
#    0.000    0.000    0.000    0.000    0.000    0.000 
#
# Total GULP energy -335205.413589 kJ/mol
# GULP energy per Si atom -5586.756893 kJ/mol
# Density = 1.996808 g / cm^3
# Si number density = 20.013637 Si / 1000 Ang^3
#
#
#
# Elastic Constant Matrix: (Units=GPa)
#
#
# Indices 1 2 3 4 5 6 
#
# 1 56.6515 14.0166 27.5357 0.0000 0.0000 0.0000
# 2 14.0166 56.6506 27.5356 0.0000 0.0000 0.0000
# 3 27.5357 27.5356 104.6245 0.0000 0.0000 0.0000
# 4 0.0000 0.0000 0.0000 31.2058 0.0000 0.0000
# 5 0.0000 0.0000 0.0000 0.0000 31.2059 0.0000
# 6 0.0000 0.0000 0.0000 0.0000 0.0000 43.1041
#
#
#
# Elastic Compliance Matrix: (Units=1/GPa)
#
#
# Indices 1 2 3 4 5 6 
#
# 1 0.020628 -0.002827 -0.004685 0.000000 0.000000 0.000000
# 2 -0.002827 0.020629 -0.004685 0.000000 0.000000 0.000000
# 3 -0.004685 -0.004685 0.012024 0.000000 0.000000 0.000000
# 4 0.000000 0.000000 0.000000 0.032045 0.000000 0.000000
# 5 0.000000 0.000000 0.000000 0.000000 0.032045 0.000000
# 6 0.000000 0.000000 0.000000 0.000000 0.000000 0.023200
#
#
# Mechanical properties :
#
#
# Convention : Reuss Voigt Hill
#
# Bulk Modulus (GPa) = 34.61745 39.56695 37.09220
# Shear Modulus (GPa) = 28.63776 31.02574 29.83175
#
# Velocity S-wave (km/s) = 3.78684 3.94157 3.86498
# Velocity P-wave (km/s) = 6.03778 6.36612 6.20412
#
# Compressibility (1/GPa) = 0.02888717
#
# Stress axis : x y z
#
# Youngs Moduli (GPa) = 48.47690 48.47605 83.16596
#
# Poissons Ratio (x) = 0.13702 0.38965
# Poissons Ratio (y) = 0.13703 0.38965
# Poissons Ratio (z) = 0.22712 0.22712
#
# Static dielectric constant tensor:
#      x y z
#    x 1.705200 0.000000 0.000000 
#    y 0.000000 1.705200 0.000000 
#    z 0.000000 0.000000 1.693720 
# 
# From -- ./inp_files/6504.got.cif
#   From: 2010.05.17/outbox.cif.g08.bks.cpg/sg95_4_cif.got.tgz:6504.got - 2010.06.03 19:46:49.
