data_PCOD9550952
_publ_section_title
;
Structure prediction by ZEFSAII (Michael W. Deem and Ramdas Pophale) SiO2 
 PCOD9550952
Probable space group: P 43 21 2
;
_chemical_formula_sum "Si O2"
_cell_formula_units_Z 40
_cell_length_a 9.128440
_cell_length_b 9.128440
_cell_length_c 24.696351
_cell_angle_alpha 90.000000
_cell_angle_beta 90.000000
_cell_angle_gamma 90.000000
_cell_volume 2057.907830
_symmetry_space_group_name_H-M "P 43 21 2"
_symmetry_group_IT_number 96
_symmetry_cell_setting 'tetragonal'
loop_
_space_group_symop_operation_xyz
x,y,z
1/2-y,1/2+x,3/4+z
-x,-y,1/2+z
1/2+y,1/2-x,1/4+z
1/2+x,1/2-y,1/4-z
1/2-x,1/2+y,3/4-z
y,x,-z
-y,-x,1/2-z
loop_
_atom_site_type_symbol
_atom_site_label
_atom_site_fract_x
_atom_site_fract_y
_atom_site_fract_z
Si Si1 0.002938 0.002938 0.500000
Si Si2 0.510102 0.510102 0.500000
Si Si3 0.892018 0.210659 0.349389
Si Si4 0.765281 0.854610 0.070987
Si Si5 0.013364 0.724043 0.562947
Si Si6 0.686416 0.055945 0.718468
O O1 0.028094 0.833098 0.511932
O O2 0.076069 0.088188 0.550168
O O3 0.613415 0.551925 0.549713
O O4 0.521937 0.339486 0.483280
O O5 0.793011 0.345471 0.330182
O O6 0.036144 0.271701 0.380791
O O7 0.797435 0.109723 0.389782
O O8 0.780955 0.679986 0.077068
O O9 0.648264 0.866471 0.021443
O O10 0.072616 0.564328 0.549185
#
# Coordination Sequence:
#
# PCOD9550952 Si02
#       6
#     4   4   8   8   8   8
#     4   8  18  36  56  78 110 142 180 234 284 340
#     4  10  22  40  56  82 122 154 192 246 294 350
#     4  11  23  37  57  85 120 158 195 241 297 358
#     4   8  19  40  59  81 113 152 192 232 294 361
#     4  11  22  37  59  86 113 148 193 241 293 348
#     4   9  20  39  61  84 112 147 196 248 295 353
#
# _framework density 19.437214999999998
#
# number of rings (size 3 to 8) (size 9 to 14) (size 15 to 20)
#    0.000    2.800    0.000    1.800    0.000   11.200 
#    0.000    6.000    0.000    0.000    0.000    0.000 
#    0.000    0.000    0.000    0.000    0.000    0.000 
#
# Total GULP energy -222952.579620 kJ/mol
# GULP energy per Si atom -5573.814491 kJ/mol
# Density = 1.939297 g / cm^3
# Si number density = 19.437215 Si / 1000 Ang^3
#
#
#
# Elastic Constant Matrix: (Units=GPa)
#
#
# Indices 1 2 3 4 5 6 
#
# 1 90.0191 56.3375 37.1965 0.0000 0.0000 0.0000
# 2 56.3375 90.0191 37.1965 0.0000 0.0000 0.0000
# 3 37.1965 37.1965 52.4611 0.0000 0.0000 0.0000
# 4 0.0000 0.0000 0.0000 18.1525 0.0000 0.0000
# 5 0.0000 0.0000 0.0000 0.0000 18.1525 0.0000
# 6 0.0000 0.0000 0.0000 0.0000 0.0000 36.0767
#
#
#
# Elastic Compliance Matrix: (Units=1/GPa)
#
#
# Indices 1 2 3 4 5 6 
#
# 1 0.020186 -0.009504 -0.007574 0.000000 0.000000 0.000000
# 2 -0.009504 0.020186 -0.007574 0.000000 0.000000 0.000000
# 3 -0.007574 -0.007574 0.029803 0.000000 0.000000 0.000000
# 4 0.000000 0.000000 0.000000 0.055089 0.000000 0.000000
# 5 0.000000 0.000000 0.000000 0.000000 0.055089 0.000000
# 6 0.000000 0.000000 0.000000 0.000000 0.000000 0.027719
#
#
# Mechanical properties :
#
#
# Convention : Reuss Voigt Hill
#
# Bulk Modulus (GPa) = 47.91428 54.88449 51.39939
# Shear Modulus (GPa) = 18.91556 21.26093 20.08825
#
# Velocity S-wave (km/s) = 3.12294 3.31089 3.21829
# Velocity P-wave (km/s) = 6.14068 6.55089 6.34910
#
# Compressibility (1/GPa) = 0.02087060
#
# Stress axis : x y z
#
# Youngs Moduli (GPa) = 49.53876 49.53876 33.55407
#
# Poissons Ratio (x) = 0.47079 0.25415
# Poissons Ratio (y) = 0.47079 0.25415
# Poissons Ratio (z) = 0.37522 0.37522
#
# Static dielectric constant tensor:
#      x y z
#    x 1.681490 0.000000 0.000000 
#    y 0.000000 1.681490 0.000000 
#    z 0.000000 0.000000 1.696430 
# 
# From -- ./inp_files/4173.got.cif
#   From: 2010.05.17/outbox.cif.g08.bks.cpg/sg96_3_cif.got.tgz:4173.got - 2010.06.03 19:52:08.
