data_PCOD9550576
_publ_section_title
;
Structure prediction by ZEFSAII (Michael W. Deem and Ramdas Pophale) SiO2 
 PCOD9550576
Probable space group: P 43 2 2
;
_chemical_formula_sum "Si O2"
_cell_formula_units_Z 32
_cell_length_a 9.523131
_cell_length_b 9.523131
_cell_length_c 18.443389
_cell_angle_alpha 90.000000
_cell_angle_beta 90.000000
_cell_angle_gamma 90.000000
_cell_volume 1672.631392
_symmetry_space_group_name_H-M "P 43 2 2"
_symmetry_group_IT_number 95
_symmetry_cell_setting 'tetragonal'
loop_
_space_group_symop_operation_xyz
x,y,z
-y,x,3/4+z
-x,-y,1/2+z
y,-x,1/4+z
x,-y,1/2-z
-x,y,-z
y,x,1/4-z
-y,-x,3/4-z
loop_
_atom_site_type_symbol
_atom_site_label
_atom_site_fract_x
_atom_site_fract_y
_atom_site_fract_z
Si Si1 0.120039 0.555911 0.582217
Si Si2 0.189708 0.388286 0.079035
Si Si3 0.772379 0.872341 0.200877
Si Si4 0.631121 0.338704 0.547320
O O1 0.165645 0.632826 0.507583
O O2 0.097539 0.391469 0.565917
O O3 0.243481 0.572139 0.638941
O O4 0.968671 0.606861 0.608957
O O5 0.278574 0.278574 0.125000
O O6 0.273698 0.536251 0.079063
O O7 0.850748 0.850748 0.125000
O O8 0.759782 0.728929 0.246831
O O9 0.827401 0.000000 0.250000
O O10 0.500000 0.394656 0.500000
#
# Coordination Sequence:
#
# PCOD9550576 Si02
#       4
#     8   8   8   8
#     4  10  21  43  61  90 137 163 205 268 324 380
#     4  10  23  40  64  92 126 163 209 267 320 369
#     4  11  21  42  66  92 128 169 212 259 315 383
#     4  11  22  36  66  96 121 165 211 255 317 387
#
# _framework density 19.131530000000001
#
# number of rings (size 3 to 8) (size 9 to 14) (size 15 to 20)
#    0.000    1.500    7.500    0.000    7.000    0.000 
#    9.000    1.250    0.000    0.000    0.000    0.000 
#    0.000    0.000    0.000    0.000    0.000    0.000 
#
# Total GULP energy -178505.821888 kJ/mol
# GULP energy per Si atom -5578.306934 kJ/mol
# Density = 1.908799 g / cm^3
# Si number density = 19.131530 Si / 1000 Ang^3
#
#
#
# Elastic Constant Matrix: (Units=GPa)
#
#
# Indices 1 2 3 4 5 6 
#
# 1 85.1209 26.6188 45.2726 0.0000 0.0000 0.0000
# 2 26.6188 85.1209 45.2726 0.0000 0.0000 0.0000
# 3 45.2726 45.2726 77.2743 0.0000 0.0000 0.0000
# 4 0.0000 0.0000 0.0000 35.8169 0.0000 0.0000
# 5 0.0000 0.0000 0.0000 0.0000 35.8169 0.0000
# 6 0.0000 0.0000 0.0000 0.0000 0.0000 4.6921
#
#
#
# Elastic Compliance Matrix: (Units=1/GPa)
#
#
# Indices 1 2 3 4 5 6 
#
# 1 0.017066 -0.000028 -0.009982 0.000000 0.000000 0.000000
# 2 -0.000028 0.017066 -0.009982 0.000000 0.000000 0.000000
# 3 -0.009982 -0.009982 0.024637 0.000000 0.000000 0.000000
# 4 0.000000 0.000000 0.000000 0.027920 0.000000 0.000000
# 5 0.000000 0.000000 0.000000 0.000000 0.027920 0.000000
# 6 0.000000 0.000000 0.000000 0.000000 0.000000 0.213126
#
#
# Mechanical properties :
#
#
# Convention : Reuss Voigt Hill
#
# Bulk Modulus (GPa) = 53.23359 53.53823 53.38591
# Shear Modulus (GPa) = 13.36970 23.95529 18.66249
#
# Velocity S-wave (km/s) = 2.64641 3.54239 3.12666
# Velocity P-wave (km/s) = 6.10110 6.69152 6.40312
#
# Compressibility (1/GPa) = 0.01878513
#
# Stress axis : x y z
#
# Youngs Moduli (GPa) = 58.59693 58.59693 40.58887
#
# Poissons Ratio (x) = 0.00162 0.40516
# Poissons Ratio (y) = 0.00162 0.40516
# Poissons Ratio (z) = 0.58492 0.58492
#
# Static dielectric constant tensor:
#      x y z
#    x 1.703330 0.000000 0.000000 
#    y 0.000000 1.703330 0.000000 
#    z 0.000000 0.000000 1.673120 
# 
# From -- ./inp_files/6036.got.cif
#   From: 2010.05.17/outbox.cif.g08.bks.cpg/sg95_4_cif.got.tgz:6036.got - 2010.06.03 19:46:49.
