data_PCOD9550151
_publ_section_title
;
Structure prediction by ZEFSAII (Michael W. Deem and Ramdas Pophale) SiO2 
 PCOD9550151
Probable space group: P 42 21 2
;
_chemical_formula_sum "Si O2"
_cell_formula_units_Z 32
_cell_length_a 12.071436
_cell_length_b 12.071436
_cell_length_c 9.061913
_cell_angle_alpha 90.000000
_cell_angle_beta 90.000000
_cell_angle_gamma 90.000000
_cell_volume 1320.498039
_symmetry_space_group_name_H-M "P 42 21 2"
_symmetry_group_IT_number 94
_symmetry_cell_setting 'tetragonal'
loop_
_space_group_symop_operation_xyz
x,y,z
1/2-y,1/2+x,1/2+z
-x,-y,z
1/2+y,1/2-x,1/2+z
1/2+x,1/2-y,1/2-z
1/2-x,1/2+y,1/2-z
y,x,-z
-y,-x,-z
loop_
_atom_site_type_symbol
_atom_site_label
_atom_site_fract_x
_atom_site_fract_y
_atom_site_fract_z
Si Si1 0.427481 0.897394 0.882856
Si Si2 0.094163 0.679690 0.426184
Si Si3 0.652257 0.347744 0.500000
Si Si4 0.111491 0.958406 0.758709
Si Si5 0.812154 0.187847 0.000000
O O1 0.393076 0.935659 0.720784
O O2 0.314498 0.846447 0.956375
O O3 0.500000 0.000000 0.951285
O O4 0.524707 0.812663 0.921487
O O5 0.220433 0.645029 0.449697
O O6 0.073202 0.799253 0.359228
O O7 0.560981 0.359965 0.370918
O O8 0.110135 0.851794 0.865893
O O9 0.000000 0.000000 0.688788
#
# Coordination Sequence:
#
# PCOD9550151 Si02
#       5
#     8   8   4   8   4
#     4  11  25  47  75 112 153 204 263 336 400 482
#     4  11  27  45  73 113 154 202 268 333 405 486
#     4  12  25  48  73 110 146 210 260 327 414 481
#     4  11  23  45  73 101 147 203 257 317 394 485
#     4  10  21  44  72 109 146 196 264 322 397 470
#
# _framework density 24.233279
#
# number of rings (size 3 to 8) (size 9 to 14) (size 15 to 20)
#    0.000    1.000    2.500    3.750    7.000    2.000 
#    0.000    0.000    0.000    0.000    0.000    0.000 
#    0.000    0.000    0.000    0.000    0.000    0.000 
#
# Total GULP energy -178155.245758 kJ/mol
# GULP energy per Si atom -5567.351430 kJ/mol
# Density = 2.417812 g / cm^3
# Si number density = 24.233279 Si / 1000 Ang^3
#
#
#
# Elastic Constant Matrix: (Units=GPa)
#
#
# Indices 1 2 3 4 5 6 
#
# 1 114.5445 19.9865 28.7612 0.0000 0.0000 0.0000
# 2 19.9865 114.5436 28.7602 0.0000 0.0000 0.0000
# 3 28.7612 28.7602 59.5064 0.0000 0.0000 0.0000
# 4 0.0000 0.0000 0.0000 17.5889 0.0000 0.0000
# 5 0.0000 0.0000 0.0000 0.0000 17.5892 0.0000
# 6 0.0000 0.0000 0.0000 0.0000 0.0000 33.8448
#
#
#
# Elastic Compliance Matrix: (Units=1/GPa)
#
#
# Indices 1 2 3 4 5 6 
#
# 1 0.009973 -0.000603 -0.004529 0.000000 0.000000 0.000000
# 2 -0.000603 0.009973 -0.004528 0.000000 0.000000 0.000000
# 3 -0.004529 -0.004528 0.021182 0.000000 0.000000 0.000000
# 4 0.000000 0.000000 0.000000 0.056854 0.000000 0.000000
# 5 0.000000 0.000000 0.000000 0.000000 0.056853 0.000000
# 6 0.000000 0.000000 0.000000 0.000000 0.000000 0.029547
#
#
# Mechanical properties :
#
#
# Convention : Reuss Voigt Hill
#
# Bulk Modulus (GPa) = 45.85593 49.29002 47.57298
# Shear Modulus (GPa) = 23.70001 27.87701 25.78851
#
# Velocity S-wave (km/s) = 3.13068 3.39538 3.26571
# Velocity P-wave (km/s) = 5.65968 5.97958 5.82183
#
# Compressibility (1/GPa) = 0.02180743
#
# Stress axis : x y z
#
# Youngs Moduli (GPa) = 100.27532 100.27539 47.20911
#
# Poissons Ratio (x) = 0.06047 0.21379
# Poissons Ratio (y) = 0.06047 0.21378
# Poissons Ratio (z) = 0.45410 0.45409
#
# Static dielectric constant tensor:
#      x y z
#    x 2.009220 0.000000 0.000000 
#    y 0.000000 2.009210 0.000000 
#    z 0.000000 0.000000 1.914340 
# 
# From -- ./inp_files/2368.got.cif
#   From: 2010.05.17/outbox.cif.g08.bks.cpg/sg94_2_cif.got.tgz:2368.got - 2010.06.03 19:43:16.
