data_PCOD9550135
_publ_section_title
;
Structure prediction by ZEFSAII (Michael W. Deem and Ramdas Pophale) SiO2 
 PCOD9550135
Probable space group: P 42 21 2
;
_chemical_formula_sum "Si O2"
_cell_formula_units_Z 40
_cell_length_a 13.463531
_cell_length_b 13.463531
_cell_length_c 9.787416
_cell_angle_alpha 90.000000
_cell_angle_beta 90.000000
_cell_angle_gamma 90.000000
_cell_volume 1774.132277
_symmetry_space_group_name_H-M "P 42 21 2"
_symmetry_group_IT_number 94
_symmetry_cell_setting 'tetragonal'
loop_
_space_group_symop_operation_xyz
x,y,z
1/2-y,1/2+x,1/2+z
-x,-y,z
1/2+y,1/2-x,1/2+z
1/2+x,1/2-y,1/2-z
1/2-x,1/2+y,1/2-z
y,x,-z
-y,-x,-z
loop_
_atom_site_type_symbol
_atom_site_label
_atom_site_fract_x
_atom_site_fract_y
_atom_site_fract_z
Si Si1 0.867628 0.867628 0.500000
Si Si2 0.138575 0.035218 0.768911
Si Si3 0.855819 0.336972 0.027789
Si Si4 0.884716 0.115285 0.000000
Si Si5 0.302002 0.697999 0.500000
Si Si6 0.687008 0.109561 0.673973
Si Si7 0.000000 0.500000 0.929795
O O1 0.914322 0.910427 0.640221
O O2 0.875527 0.748896 0.473954
O O3 0.223017 0.966435 0.697026
O O4 0.176623 0.120068 0.876173
O O5 0.091461 0.953197 0.871105
O O6 0.942223 0.416758 0.014983
O O7 0.893822 0.232820 0.965696
O O8 0.831511 0.314747 0.184611
O O9 0.310037 0.810766 0.553367
O O10 0.585124 0.050480 0.658668
#
# Coordination Sequence:
#
# PCOD9550135 Si02
#       7
#     4   8   8   4   4   8   4
#     4  11  20  46  72 104 157 195 251 322 386 461
#     4  11  24  47  74 107 150 213 258 318 397 467
#     4  10  21  41  68 109 156 189 241 324 382 458
#     4   9  22  43  72 107 153 211 249 308 396 470
#     4  12  26  47  74 107 158 208 260 318 406 485
#     4  11  23  41  70 110 146 192 253 317 385 468
#     4  12  22  40  74 118 144 188 252 318 402 462
#
# _framework density 22.546233000000001
#
# number of rings (size 3 to 8) (size 9 to 14) (size 15 to 20)
#    0.000    1.200    4.000    3.000    0.000    0.400 
#    0.000   10.000    0.000    0.000    0.000    0.000 
#    0.000    0.000    0.000    0.000    0.000    0.000 
#
# Total GULP energy -223157.520534 kJ/mol
# GULP energy per Si atom -5578.938013 kJ/mol
# Density = 2.249492 g / cm^3
# Si number density = 22.546233 Si / 1000 Ang^3
#
#
#
# Elastic Constant Matrix: (Units=GPa)
#
#
# Indices 1 2 3 4 5 6 
#
# 1 91.4785 68.4924 50.8856 0.0000 0.0000 0.0000
# 2 68.4924 91.4805 50.8860 0.0000 0.0000 0.0000
# 3 50.8856 50.8860 133.9583 0.0000 0.0000 0.0000
# 4 0.0000 0.0000 0.0000 31.2649 0.0000 0.0000
# 5 0.0000 0.0000 0.0000 0.0000 31.2646 0.0000
# 6 0.0000 0.0000 0.0000 0.0000 0.0000 41.1533
#
#
#
# Elastic Compliance Matrix: (Units=1/GPa)
#
#
# Indices 1 2 3 4 5 6 
#
# 1 0.025873 -0.017630 -0.003131 0.000000 0.000000 0.000000
# 2 -0.017630 0.025873 -0.003131 0.000000 0.000000 0.000000
# 3 -0.003131 -0.003131 0.009844 0.000000 0.000000 0.000000
# 4 0.000000 0.000000 0.000000 0.031985 0.000000 0.000000
# 5 0.000000 0.000000 0.000000 0.000000 0.031985 0.000000
# 6 0.000000 0.000000 0.000000 0.000000 0.000000 0.024299
#
#
# Mechanical properties :
#
#
# Convention : Reuss Voigt Hill
#
# Bulk Modulus (GPa) = 72.43671 73.04948 72.74310
# Shear Modulus (GPa) = 24.72245 30.51346 27.61795
#
# Velocity S-wave (km/s) = 3.31497 3.68281 3.50372
# Velocity P-wave (km/s) = 6.84470 7.11016 6.97869
#
# Compressibility (1/GPa) = 0.01380515
#
# Stress axis : x y z
#
# Youngs Moduli (GPa) = 38.64998 38.65083 101.58557
#
# Poissons Ratio (x) = 0.68141 0.31810
# Poissons Ratio (y) = 0.68139 0.31809
# Poissons Ratio (z) = 0.12103 0.12102
#
# Static dielectric constant tensor:
#      x y z
#    x 1.951220 0.000000 0.000000 
#    y 0.000000 1.951210 0.000000 
#    z 0.000000 0.000000 1.889290 
# 
# From -- ./inp_files/1513.got.cif
#   From: 2010.05.17/outbox.cif.g08.bks.cpg/sg94_1_cif.got.tgz:1513.got - 2010.06.03 19:43:16.
