data_PCOD9550225
_publ_section_title
;
Structure prediction by ZEFSAII (Michael W. Deem and Ramdas Pophale) SiO2 
 PCOD9550225
Probable space group: P 42 21 2
;
_chemical_formula_sum "Si O2"
_cell_formula_units_Z 28
_cell_length_a 11.911865
_cell_length_b 11.911865
_cell_length_c 8.178615
_cell_angle_alpha 90.000000
_cell_angle_beta 90.000000
_cell_angle_gamma 90.000000
_cell_volume 1160.484356
_symmetry_space_group_name_H-M "P 42 21 2"
_symmetry_group_IT_number 94
_symmetry_cell_setting 'tetragonal'
loop_
_space_group_symop_operation_xyz
x,y,z
1/2-y,1/2+x,1/2+z
-x,-y,z
1/2+y,1/2-x,1/2+z
1/2+x,1/2-y,1/2-z
1/2-x,1/2+y,1/2-z
y,x,-z
-y,-x,-z
loop_
_atom_site_type_symbol
_atom_site_label
_atom_site_fract_x
_atom_site_fract_y
_atom_site_fract_z
Si Si1 0.782602 0.379892 0.253885
Si Si2 0.032255 0.131152 0.181267
Si Si3 0.319070 0.319070 0.500000
Si Si4 0.068578 0.740001 0.480628
O O1 0.663361 0.367806 0.336890
O O2 0.881038 0.368345 0.387723
O O3 0.784782 0.266117 0.143434
O O4 0.784344 0.492242 0.140202
O O5 0.007969 0.195534 0.349657
O O6 0.000000 0.000000 0.200953
O O7 0.952656 0.184975 0.042274
O O8 0.173269 0.826732 0.500000
#
# Coordination Sequence:
#
# PCOD9550225 Si02
#       4
#     8   8   4   8
#     4  11  23  44  75 114 159 196 269 326 395 467
#     4  11  21  40  76 104 148 195 269 316 370 457
#     4  10  23  38  67 118 142 204 264 320 385 442
#     4  11  23  43  77 117 153 208 254 330 393 457
#
# _framework density 24.127856000000001
#
# number of rings (size 3 to 8) (size 9 to 14) (size 15 to 20)
#    0.000    1.143    5.714    0.429    0.000    2.286 
#    0.000    0.000    0.000   36.000    0.000    0.000 
#    0.000    0.000    0.000    0.000    0.000    0.000 
#
# Total GULP energy -156074.248794 kJ/mol
# GULP energy per Si atom -5574.080314 kJ/mol
# Density = 2.407294 g / cm^3
# Si number density = 24.127856 Si / 1000 Ang^3
#
#
#
# Elastic Constant Matrix: (Units=GPa)
#
#
# Indices 1 2 3 4 5 6 
#
# 1 116.6186 104.7042 74.5016 0.0000 0.0000 0.0000
# 2 104.7042 116.6180 74.5000 0.0000 0.0000 0.0000
# 3 74.5016 74.5000 125.1543 0.0000 0.0000 0.0000
# 4 0.0000 0.0000 0.0000 41.8621 0.0000 0.0000
# 5 0.0000 0.0000 0.0000 0.0000 41.8635 0.0000
# 6 0.0000 0.0000 0.0000 0.0000 0.0000 40.4016
#
#
#
# Elastic Compliance Matrix: (Units=1/GPa)
#
#
# Indices 1 2 3 4 5 6 
#
# 1 0.045737 -0.038197 -0.004489 0.000000 0.000000 0.000000
# 2 -0.038197 0.045737 -0.004488 0.000000 0.000000 0.000000
# 3 -0.004489 -0.004488 0.013334 0.000000 0.000000 0.000000
# 4 0.000000 0.000000 0.000000 0.023888 0.000000 0.000000
# 5 0.000000 0.000000 0.000000 0.000000 0.023887 0.000000
# 6 0.000000 0.000000 0.000000 0.000000 0.000000 0.024752
#
#
# Mechanical properties :
#
#
# Convention : Reuss Voigt Hill
#
# Bulk Modulus (GPa) = 95.59940 96.20027 95.89983
# Shear Modulus (GPa) = 18.17067 31.80443 24.98755
#
# Velocity S-wave (km/s) = 2.74724 3.63459 3.22161
# Velocity P-wave (km/s) = 7.05487 7.58757 7.32606
#
# Compressibility (1/GPa) = 0.01046032
#
# Stress axis : x y z
#
# Youngs Moduli (GPa) = 21.86392 21.86429 74.99786
#
# Poissons Ratio (x) = 0.83515 0.33667
# Poissons Ratio (y) = 0.83514 0.33656
# Poissons Ratio (z) = 0.09815 0.09812
#
# Static dielectric constant tensor:
#      x y z
#    x 1.970520 0.000000 0.000000 
#    y 0.000000 1.970520 0.000000 
#    z 0.000000 0.000000 2.095500 
# 
# From -- ./inp_files/2163.got.cif
#   From: 2010.05.17/outbox.cif.g08.bks.cpg/sg94_2_cif.got.tgz:2163.got - 2010.06.03 19:43:16.
