data_PCOD9550905
_publ_section_title
;
Structure prediction by ZEFSAII (Michael W. Deem and Ramdas Pophale) SiO2 
 PCOD9550905
Probable space group: P 43 21 2
;
_chemical_formula_sum "Si O2"
_cell_formula_units_Z 64
_cell_length_a 23.346872
_cell_length_b 23.346872
_cell_length_c 5.635359
_cell_angle_alpha 90.000000
_cell_angle_beta 90.000000
_cell_angle_gamma 90.000000
_cell_volume 3071.701378
_symmetry_space_group_name_H-M "P 43 21 2"
_symmetry_group_IT_number 96
_symmetry_cell_setting 'tetragonal'
loop_
_space_group_symop_operation_xyz
x,y,z
1/2-y,1/2+x,3/4+z
-x,-y,1/2+z
1/2+y,1/2-x,1/4+z
1/2+x,1/2-y,1/4-z
1/2-x,1/2+y,3/4-z
y,x,-z
-y,-x,1/2-z
loop_
_atom_site_type_symbol
_atom_site_label
_atom_site_fract_x
_atom_site_fract_y
_atom_site_fract_z
Si Si1 0.462011 0.064250 0.983302
Si Si2 0.566926 0.222890 0.092275
Si Si3 0.151548 0.109696 0.749034
Si Si4 0.155170 0.938226 0.261794
Si Si5 0.782255 0.551394 0.123520
Si Si6 0.138088 0.525456 0.317623
Si Si7 0.863357 0.633270 0.392192
Si Si8 0.012334 0.894288 0.740022
O O1 0.507391 0.076855 0.778335
O O2 0.431899 0.003660 0.957648
O O3 0.418608 0.115734 0.944245
O O4 0.585756 0.284082 0.996574
O O5 0.508349 0.232346 0.240062
O O6 0.621942 0.192913 0.224500
O O7 0.544738 0.179165 0.895751
O O8 0.141914 0.141914 0.500000
O O9 0.107876 0.055976 0.753606
O O10 0.142399 0.142399 0.000000
O O11 0.121949 0.878052 0.250000
O O12 0.223415 0.932065 0.254171
O O13 0.137221 0.967375 0.513877
O O14 0.134787 0.969385 0.014067
O O15 0.806822 0.606444 0.270132
O O16 0.831294 0.526045 0.955379
O O17 0.131953 0.583640 0.461533
O O18 0.044332 0.955668 0.750000
#
# Coordination Sequence:
#
# PCOD9550905 Si02
#       8
#     8   8   8   8   8   8   8   8
#     4  12  20  34  53  90 131 165 207 274 346 409
#     4  11  24  44  67  91 137 179 234 276 347 420
#     4  12  27  44  73 104 135 185 235 281 343 417
#     4  10  21  39  69 104 138 174 220 271 340 411
#     4  11  22  38  68  94 129 175 231 281 344 408
#     4  11  22  38  61  89 129 174 222 276 345 410
#     4  11  23  38  58  96 124 178 229 284 332 406
#     4  10  21  41  69 107 146 173 209 275 349 429
#
# _framework density 20.835359
#
# number of rings (size 3 to 8) (size 9 to 14) (size 15 to 20)
#    0.000    1.000    3.750    3.750    3.500    0.500 
#    0.000    0.000    2.750    0.000    0.000    0.000 
#    0.000    0.000    0.000    0.000    0.000    0.000 
#
# Total GULP energy -356479.676858 kJ/mol
# GULP energy per Si atom -5569.994951 kJ/mol
# Density = 2.078794 g / cm^3
# Si number density = 20.835359 Si / 1000 Ang^3
#
#
#
# Elastic Constant Matrix: (Units=GPa)
#
#
# Indices 1 2 3 4 5 6 
#
# 1 60.6629 22.5091 35.6593 0.0000 0.0000 0.0000
# 2 22.5091 60.6614 35.6593 0.0000 0.0000 0.0000
# 3 35.6593 35.6593 104.9876 0.0000 0.0000 0.0000
# 4 0.0000 0.0000 0.0000 29.3591 0.0000 0.0000
# 5 0.0000 0.0000 0.0000 0.0000 29.3589 0.0000
# 6 0.0000 0.0000 0.0000 0.0000 0.0000 21.4648
#
#
#
# Elastic Compliance Matrix: (Units=1/GPa)
#
#
# Indices 1 2 3 4 5 6 
#
# 1 0.021587 -0.004623 -0.005762 0.000000 0.000000 0.000000
# 2 -0.004623 0.021588 -0.005762 0.000000 0.000000 0.000000
# 3 -0.005762 -0.005762 0.013439 0.000000 0.000000 0.000000
# 4 0.000000 0.000000 0.000000 0.034061 0.000000 0.000000
# 5 0.000000 0.000000 0.000000 0.000000 0.034061 0.000000
# 6 0.000000 0.000000 0.000000 0.000000 0.000000 0.046588
#
#
# Mechanical properties :
#
#
# Convention : Reuss Voigt Hill
#
# Bulk Modulus (GPa) = 41.11894 45.99638 43.55766
# Shear Modulus (GPa) = 23.61566 24.86883 24.24225
#
# Velocity S-wave (km/s) = 3.37031 3.45858 3.41473
# Velocity P-wave (km/s) = 5.90960 6.17034 6.04138
#
# Compressibility (1/GPa) = 0.02431970
#
# Stress axis : x y z
#
# Youngs Moduli (GPa) = 46.32444 46.32301 74.41007
#
# Poissons Ratio (x) = 0.21415 0.42874
# Poissons Ratio (y) = 0.21416 0.42875
# Poissons Ratio (z) = 0.26691 0.26691
#
# Static dielectric constant tensor:
#      x y z
#    x 1.956440 0.000000 0.000000 
#    y 0.000000 1.956440 0.000000 
#    z 0.000000 0.000000 1.993450 
# 
# From -- ./inp_files/851.got.cif
#   From: 2010.05.17/outbox.cif.g08.bks.cpg/sg96_1_cif.got.tgz:851.got - 2010.06.03 19:52:08.
