data_PCOD9550890
_publ_section_title
;
Structure prediction by ZEFSAII (Michael W. Deem and Ramdas Pophale) SiO2 
 PCOD9550890
Probable space group: P 43 21 2
;
_chemical_formula_sum "Si O2"
_cell_formula_units_Z 48
_cell_length_a 17.353258
_cell_length_b 17.353258
_cell_length_c 9.093417
_cell_angle_alpha 90.000000
_cell_angle_beta 90.000000
_cell_angle_gamma 90.000000
_cell_volume 2738.351250
_symmetry_space_group_name_H-M "P 43 21 2"
_symmetry_group_IT_number 96
_symmetry_cell_setting 'tetragonal'
loop_
_space_group_symop_operation_xyz
x,y,z
1/2-y,1/2+x,3/4+z
-x,-y,1/2+z
1/2+y,1/2-x,1/4+z
1/2+x,1/2-y,1/4-z
1/2-x,1/2+y,3/4-z
y,x,-z
-y,-x,1/2-z
loop_
_atom_site_type_symbol
_atom_site_label
_atom_site_fract_x
_atom_site_fract_y
_atom_site_fract_z
Si Si1 0.409555 0.846181 0.023548
Si Si2 0.003332 0.688836 0.503316
Si Si3 0.883142 0.203938 0.143291
Si Si4 0.410116 0.992855 0.524067
Si Si5 0.747411 0.237815 0.576351
Si Si6 0.336069 0.845924 0.622149
O O1 0.372398 0.927680 0.968503
O O2 0.440115 0.869230 0.182873
O O3 0.340286 0.785152 0.036813
O O4 0.478745 0.816765 0.918848
O O5 0.036041 0.766948 0.577098
O O6 0.922320 0.669475 0.575370
O O7 0.869480 0.130521 0.250000
O O8 0.849997 0.273282 0.247650
O O9 0.829705 0.201511 0.998658
O O10 0.472381 0.952302 0.416230
O O11 0.343908 0.931280 0.558178
O O12 0.757098 0.242902 0.750000
O O13 0.781188 0.311858 0.493936
#
# Coordination Sequence:
#
# PCOD9550890 Si02
#       6
#     8   8   8   8   8   8
#     4  11  22  34  53  81 121 154 189 234 288 349
#     4  11  19  34  55  80 115 153 189 229 283 348
#     4   9  20  37  54  75 111 151 197 238 273 337
#     4  12  23  32  50  80 116 152 186 231 286 350
#     4  10  21  37  51  74 110 155 195 233 273 339
#     4  11  21  34  54  76 111 154 192 228 283 347
#
# _framework density 17.528794999999999
#
# number of rings (size 3 to 8) (size 9 to 14) (size 15 to 20)
#    0.000    1.333    5.000    3.000    2.333    0.000 
#    0.000    0.000    0.000    0.000    0.000    0.000 
#   35.000    0.000    0.000    0.000    0.000    0.000 
#
# Total GULP energy -267395.076198 kJ/mol
# GULP energy per Si atom -5570.730754 kJ/mol
# Density = 1.748890 g / cm^3
# Si number density = 17.528795 Si / 1000 Ang^3
#
#
#
# Elastic Constant Matrix: (Units=GPa)
#
#
# Indices 1 2 3 4 5 6 
#
# 1 34.5111 30.4886 21.1367 0.0000 0.0000 0.0000
# 2 30.4886 34.5125 21.1368 0.0000 0.0000 0.0000
# 3 21.1367 21.1368 100.4300 0.0000 0.0000 0.0000
# 4 0.0000 0.0000 0.0000 31.8325 0.0000 0.0000
# 5 0.0000 0.0000 0.0000 0.0000 31.8324 0.0000
# 6 0.0000 0.0000 0.0000 0.0000 0.0000 38.1604
#
#
#
# Elastic Compliance Matrix: (Units=1/GPa)
#
#
# Indices 1 2 3 4 5 6 
#
# 1 0.133194 -0.115367 -0.003752 0.000000 0.000000 0.000000
# 2 -0.115367 0.133188 -0.003751 0.000000 0.000000 0.000000
# 3 -0.003752 -0.003751 0.011536 0.000000 0.000000 0.000000
# 4 0.000000 0.000000 0.000000 0.031414 0.000000 0.000000
# 5 0.000000 0.000000 0.000000 0.000000 0.031415 0.000000
# 6 0.000000 0.000000 0.000000 0.000000 0.000000 0.026205
#
#
# Mechanical properties :
#
#
# Convention : Reuss Voigt Hill
#
# Bulk Modulus (GPa) = 31.07583 34.99753 33.03668
# Shear Modulus (GPa) = 8.02030 26.81116 17.41573
#
# Velocity S-wave (km/s) = 2.14136 3.91519 3.15548
# Velocity P-wave (km/s) = 4.88680 6.35982 5.67134
#
# Compressibility (1/GPa) = 0.03217935
#
# Stress axis : x y z
#
# Youngs Moduli (GPa) = 7.50782 7.50819 86.68359
#
# Poissons Ratio (x) = 0.86620 0.32523
# Poissons Ratio (y) = 0.86615 0.32513
# Poissons Ratio (z) = 0.02817 0.02816
#
# Static dielectric constant tensor:
#      x y z
#    x 1.626160 0.000000 0.000000 
#    y 0.000000 1.626160 0.000000 
#    z 0.000000 0.000000 1.671860 
# 
# From -- ./inp_files/1505.got.cif
#   From: 2010.05.17/outbox.cif.g08.bks.cpg/sg96_1_cif.got.tgz:1505.got - 2010.06.03 19:52:08.
