data_PCOD9550572
_publ_section_title
;
Structure prediction by ZEFSAII (Michael W. Deem and Ramdas Pophale) SiO2 
 PCOD9550572
Probable space group: P 43 2 2
;
_chemical_formula_sum "Si O2"
_cell_formula_units_Z 40
_cell_length_a 17.637286
_cell_length_b 17.637286
_cell_length_c 5.543533
_cell_angle_alpha 90.000000
_cell_angle_beta 90.000000
_cell_angle_gamma 90.000000
_cell_volume 1724.448194
_symmetry_space_group_name_H-M "P 43 2 2"
_symmetry_group_IT_number 95
_symmetry_cell_setting 'tetragonal'
loop_
_space_group_symop_operation_xyz
x,y,z
-y,x,3/4+z
-x,-y,1/2+z
y,-x,1/4+z
x,-y,1/2-z
-x,y,-z
y,x,1/4-z
-y,-x,3/4-z
loop_
_atom_site_type_symbol
_atom_site_label
_atom_site_fract_x
_atom_site_fract_y
_atom_site_fract_z
Si Si1 0.855344 0.855344 0.125000
Si Si2 0.000000 0.769280 0.000000
Si Si3 0.791251 0.208750 0.875000
Si Si4 0.612183 0.612183 0.625000
Si Si5 0.042670 0.500000 0.250000
Si Si6 0.343309 0.115564 0.994250
Si Si7 0.500000 0.337081 0.500000
Si Si8 0.364957 0.256642 0.732787
O O1 0.820579 0.827815 0.378092
O O2 0.825428 0.941634 0.116154
O O3 0.953440 0.712618 0.822707
O O4 0.820997 0.295312 0.890941
O O5 0.614807 0.536212 0.465249
O O6 0.616370 0.688663 0.461967
O O7 0.087935 0.575463 0.333203
O O8 0.000000 0.476842 0.500000
O O9 0.363031 0.167453 0.763695
O O10 0.430855 0.282754 0.559519
O O11 0.286277 0.286277 0.625000
#
# Coordination Sequence:
#
# PCOD9550572 Si02
#       8
#     4   4   4   4   4   8   4   8
#     4  10  24  46  77 115 145 208 239 324 368 452
#     4  10  24  48  76 110 160 192 260 304 380 456
#     4  10  25  44  81 108 148 200 271 305 366 448
#     4  10  21  42  68  97 139 186 246 315 368 454
#     4  12  30  51  74 116 167 204 246 322 410 471
#     4  11  25  47  74 112 149 202 254 316 377 466
#     4  10  22  41  72  96 145 180 250 308 384 439
#     4  10  23  43  70 102 137 189 249 308 369 442
#
# _framework density 23.195824000000002
#
# number of rings (size 3 to 8) (size 9 to 14) (size 15 to 20)
#    0.000    1.600    1.000    1.200   11.200    3.200 
#    3.600    4.000   79.200    0.000    0.000    0.000 
#    0.000    0.000    0.000    0.000    0.000    0.000 
#
# Total GULP energy -223131.014972 kJ/mol
# GULP energy per Si atom -5578.275374 kJ/mol
# Density = 2.314303 g / cm^3
# Si number density = 23.195824 Si / 1000 Ang^3
#
#
#
# Elastic Constant Matrix: (Units=GPa)
#
#
# Indices 1 2 3 4 5 6 
#
# 1 105.6874 69.8617 16.5936 0.0000 0.0000 0.0000
# 2 69.8617 105.6901 16.5930 0.0000 0.0000 0.0000
# 3 16.5936 16.5930 76.7568 0.0000 0.0000 0.0000
# 4 0.0000 0.0000 0.0000 13.2947 0.0000 0.0000
# 5 0.0000 0.0000 0.0000 0.0000 13.2942 0.0000
# 6 0.0000 0.0000 0.0000 0.0000 0.0000 45.3616
#
#
#
# Elastic Compliance Matrix: (Units=1/GPa)
#
#
# Indices 1 2 3 4 5 6 
#
# 1 0.016926 -0.010986 -0.001284 0.000000 0.000000 0.000000
# 2 -0.010986 0.016925 -0.001284 0.000000 0.000000 0.000000
# 3 -0.001284 -0.001284 0.013583 0.000000 0.000000 0.000000
# 4 0.000000 0.000000 0.000000 0.075218 0.000000 0.000000
# 5 0.000000 0.000000 0.000000 0.000000 0.075221 0.000000
# 6 0.000000 0.000000 0.000000 0.000000 0.000000 0.022045
#
#
# Mechanical properties :
#
#
# Convention : Reuss Voigt Hill
#
# Bulk Modulus (GPa) = 49.19857 54.91454 52.05656
# Shear Modulus (GPa) = 19.70043 26.72918 23.21480
#
# Velocity S-wave (km/s) = 2.91745 3.39828 3.16700
# Velocity P-wave (km/s) = 5.71007 6.25487 5.98867
#
# Compressibility (1/GPa) = 0.02032579
#
# Stress axis : x y z
#
# Youngs Moduli (GPa) = 59.08168 59.08336 73.62000
#
# Poissons Ratio (x) = 0.64911 0.09453
# Poissons Ratio (y) = 0.64909 0.09451
# Poissons Ratio (z) = 0.07586 0.07585
#
# Static dielectric constant tensor:
#      x y z
#    x 1.908690 0.000000 0.000000 
#    y 0.000000 1.908690 0.000000 
#    z 0.000000 0.000000 2.115170 
# 
# From -- ./inp_files/961.got.cif
#   From: 2010.05.17/outbox.cif.g08.bks.cpg/sg95_1_cif.got.tgz:961.got - 2010.06.03 19:46:49.
