data_PCOD9550049
_publ_section_title
;
Structure prediction by ZEFSAII (Michael W. Deem and Ramdas Pophale) SiO2 
 PCOD9550049
Probable space group: P 42 21 2
;
_chemical_formula_sum "Si O2"
_cell_formula_units_Z 58
_cell_length_a 18.326371
_cell_length_b 18.326371
_cell_length_c 7.700362
_cell_angle_alpha 90.000000
_cell_angle_beta 90.000000
_cell_angle_gamma 90.000000
_cell_volume 2586.211810
_symmetry_space_group_name_H-M "P 42 21 2"
_symmetry_group_IT_number 94
_symmetry_cell_setting 'tetragonal'
loop_
_space_group_symop_operation_xyz
x,y,z
1/2-y,1/2+x,1/2+z
-x,-y,z
1/2+y,1/2-x,1/2+z
1/2+x,1/2-y,1/2-z
1/2-x,1/2+y,1/2-z
y,x,-z
-y,-x,-z
loop_
_atom_site_type_symbol
_atom_site_label
_atom_site_fract_x
_atom_site_fract_y
_atom_site_fract_z
Si Si1 0.500000 0.500000 0.500000
Si Si2 0.555344 0.594745 0.189578
Si Si3 0.292848 0.742654 0.197209
Si Si4 0.469489 0.179650 0.770961
Si Si5 0.580968 0.161744 0.289460
Si Si6 0.796837 0.122001 0.157191
Si Si7 0.692092 0.868641 0.179395
Si Si8 0.230488 0.439299 0.841168
O O1 0.508401 0.564974 0.355019
O O2 0.639496 0.582995 0.240301
O O3 0.548309 0.683064 0.181999
O O4 0.554852 0.554852 0.000000
O O5 0.373613 0.774728 0.192945
O O6 0.245619 0.813117 0.257079
O O7 0.270895 0.669627 0.299239
O O8 0.272772 0.727229 0.000000
O O9 0.420402 0.107249 0.744702
O O10 0.439171 0.235650 0.624346
O O11 0.556650 0.176413 0.781170
O O12 0.445281 0.213674 0.954430
O O13 0.604633 0.176257 0.486148
O O14 0.498488 0.179175 0.250242
O O15 0.838478 0.161523 0.000000
O O16 0.637566 0.802261 0.223701
#
# Coordination Sequence:
#
# PCOD9550049 Si02
#       8
#     2   8   8   8   8   8   8   8
#     4  12  30  48  68 110 144 180 242 296 364 432
#     4  12  24  47  75 101 138 189 242 293 351 441
#     4  10  20  38  64  96 128 168 222 289 345 420
#     4  10  23  42  65 100 136 179 235 292 361 432
#     4  10  24  40  61  97 136 175 228 287 359 424
#     4  10  20  38  71  97 127 180 232 284 349 432
#     4  11  23  39  68  96 132 177 235 294 351 425
#     4  11  24  44  68  98 135 185 232 291 360 439
#
# _framework density 22.426624
#
# number of rings (size 3 to 8) (size 9 to 14) (size 15 to 20)
#    0.000    1.379    3.448    1.448    1.931    2.759 
#    4.966    2.759    0.000    0.000    0.000    0.000 
#    0.000    0.000    0.000    0.000    0.000    0.000 
#
# Total GULP energy -323285.721996 kJ/mol
# GULP energy per Si atom -5573.891759 kJ/mol
# Density = 2.237558 g / cm^3
# Si number density = 22.426624 Si / 1000 Ang^3
#
#
#
# Elastic Constant Matrix: (Units=GPa)
#
#
# Indices 1 2 3 4 5 6 
#
# 1 75.6809 20.0741 22.6069 0.0000 0.0000 0.0000
# 2 20.0741 75.6872 22.6095 0.0000 0.0000 0.0000
# 3 22.6069 22.6095 80.1592 0.0000 0.0000 0.0000
# 4 0.0000 0.0000 0.0000 16.8588 0.0000 0.0000
# 5 0.0000 0.0000 0.0000 0.0000 16.8497 0.0000
# 6 0.0000 0.0000 0.0000 0.0000 0.0000 21.8066
#
#
#
# Elastic Compliance Matrix: (Units=1/GPa)
#
#
# Indices 1 2 3 4 5 6 
#
# 1 0.015015 -0.002967 -0.003398 0.000000 0.000000 0.000000
# 2 -0.002967 0.015014 -0.003398 0.000000 0.000000 0.000000
# 3 -0.003398 -0.003398 0.014392 0.000000 0.000000 0.000000
# 4 0.000000 0.000000 0.000000 0.059316 0.000000 0.000000
# 5 0.000000 0.000000 0.000000 0.000000 0.059348 0.000000
# 6 0.000000 0.000000 0.000000 0.000000 0.000000 0.045858
#
#
# Mechanical properties :
#
#
# Convention : Reuss Voigt Hill
#
# Bulk Modulus (GPa) = 40.16834 40.23425 40.20130
# Shear Modulus (GPa) = 21.11766 22.18547 21.65157
#
# Velocity S-wave (km/s) = 3.07193 3.14864 3.11052
# Velocity P-wave (km/s) = 5.52560 5.58551 5.55564
#
# Compressibility (1/GPa) = 0.02489523
#
# Stress axis : x y z
#
# Youngs Moduli (GPa) = 66.59814 66.60280 69.48375
#
# Poissons Ratio (x) = 0.19764 0.23609
# Poissons Ratio (y) = 0.19763 0.23611
# Poissons Ratio (z) = 0.22628 0.22632
#
# Static dielectric constant tensor:
#      x y z
#    x 2.570530 0.000000 0.000000 
#    y 0.000000 2.571350 0.000000 
#    z 0.000000 0.000000 1.880070 
# 
# From -- ./inp_files/1731.got.cif
#   From: 2010.05.17/outbox.cif.g08.bks.cpg/sg94_1_cif.got.tgz:1731.got - 2010.06.03 19:43:16.
