data_PCOD9550106
_publ_section_title
;
Structure prediction by ZEFSAII (Michael W. Deem and Ramdas Pophale) SiO2 
 PCOD9550106
Probable space group: P 42 21 2
;
_chemical_formula_sum "Si O2"
_cell_formula_units_Z 28
_cell_length_a 8.183047
_cell_length_b 8.183047
_cell_length_c 16.601309
_cell_angle_alpha 90.000000
_cell_angle_beta 90.000000
_cell_angle_gamma 90.000000
_cell_volume 1111.661140
_symmetry_space_group_name_H-M "P 42 21 2"
_symmetry_group_IT_number 94
_symmetry_cell_setting 'tetragonal'
loop_
_space_group_symop_operation_xyz
x,y,z
1/2-y,1/2+x,1/2+z
-x,-y,z
1/2+y,1/2-x,1/2+z
1/2+x,1/2-y,1/2-z
1/2-x,1/2+y,1/2-z
y,x,-z
-y,-x,-z
loop_
_atom_site_type_symbol
_atom_site_label
_atom_site_fract_x
_atom_site_fract_y
_atom_site_fract_z
Si Si1 0.412433 0.238744 0.329887
Si Si2 0.500000 0.000000 0.461097
Si Si3 0.000000 0.000000 0.362193
Si Si4 0.079272 0.219922 0.788720
Si Si5 0.310959 0.310959 0.000000
O O1 0.391769 0.116115 0.403382
O O2 0.299701 0.400804 0.327256
O O3 0.600494 0.300447 0.336915
O O4 0.388501 0.152798 0.242487
O O5 0.622734 0.127365 0.503343
O O6 0.129268 0.070621 0.298310
O O7 0.902209 0.117439 0.421622
#
# Coordination Sequence:
#
# PCOD9550106 Si02
#       5
#     8   4   4   8   4
#     4  10  21  38  67  98 135 163 225 296 361 423
#     4  12  24  46  66 100 142 186 252 288 350 442
#     4   9  20  44  64  88 136 185 224 268 366 429
#     4  10  21  40  70 104 127 172 216 310 372 419
#     4  11  24  44  68  91 140 198 235 285 340 438
#
# _framework density 25.187532000000001
#
# number of rings (size 3 to 8) (size 9 to 14) (size 15 to 20)
#    0.000    2.000    2.857    1.714    4.000    0.000 
#   10.286    5.714    0.000    0.000    0.000    0.000 
#    0.000    0.000    0.000    0.000    0.000    0.000 
#
# Total GULP energy -156292.057927 kJ/mol
# GULP energy per Si atom -5581.859212 kJ/mol
# Density = 2.513020 g / cm^3
# Si number density = 25.187532 Si / 1000 Ang^3
#
#
#
# Elastic Constant Matrix: (Units=GPa)
#
#
# Indices 1 2 3 4 5 6 
#
# 1 104.2254 53.7384 8.5797 0.0000 0.0000 0.0000
# 2 53.7384 104.2254 8.5797 0.0000 0.0000 0.0000
# 3 8.5797 8.5797 53.1044 0.0000 0.0000 0.0000
# 4 0.0000 0.0000 0.0000 60.4176 0.0000 0.0000
# 5 0.0000 0.0000 0.0000 0.0000 60.4176 0.0000
# 6 0.0000 0.0000 0.0000 0.0000 0.0000 52.6579
#
#
#
# Elastic Compliance Matrix: (Units=1/GPa)
#
#
# Indices 1 2 3 4 5 6 
#
# 1 0.013125 -0.006682 -0.001041 0.000000 0.000000 0.000000
# 2 -0.006682 0.013125 -0.001041 0.000000 0.000000 0.000000
# 3 -0.001041 -0.001041 0.019167 0.000000 0.000000 0.000000
# 4 0.000000 0.000000 0.000000 0.016551 0.000000 0.000000
# 5 0.000000 0.000000 0.000000 0.000000 0.016551 0.000000
# 6 0.000000 0.000000 0.000000 0.000000 0.000000 0.018991
#
#
# Mechanical properties :
#
#
# Convention : Reuss Voigt Hill
#
# Bulk Modulus (GPa) = 35.85471 44.81673 40.33572
# Shear Modulus (GPa) = 40.21368 47.40912 43.81140
#
# Velocity S-wave (km/s) = 4.00005 4.34319 4.17515
# Velocity P-wave (km/s) = 5.96656 6.55614 6.26828
#
# Compressibility (1/GPa) = 0.02789034
#
# Stress axis : x y z
#
# Youngs Moduli (GPa) = 76.18834 76.18834 52.17237
#
# Poissons Ratio (x) = 0.50907 0.05431
# Poissons Ratio (y) = 0.50907 0.05431
# Poissons Ratio (z) = 0.07932 0.07932
#
# Static dielectric constant tensor:
#      x y z
#    x 2.245810 0.000000 0.000000 
#    y 0.000000 2.245810 0.000000 
#    z 0.000000 0.000000 1.961930 
# 
# From -- ./inp_files/3880.got.cif
#   From: 2010.05.17/outbox.cif.g08.bks.cpg/sg94_2_cif.got.tgz:3880.got - 2010.06.03 19:43:16.
