data_PCOD9550297
_publ_section_title
;
Structure prediction by ZEFSAII (Michael W. Deem and Ramdas Pophale) SiO2 
 PCOD9550297
Probable space group: P 42 21 2
;
_chemical_formula_sum "Si O2"
_cell_formula_units_Z 48
_cell_length_a 9.630537
_cell_length_b 9.630537
_cell_length_c 28.753075
_cell_angle_alpha 90.000000
_cell_angle_beta 90.000000
_cell_angle_gamma 90.000000
_cell_volume 2666.768431
_symmetry_space_group_name_H-M "P 42 21 2"
_symmetry_group_IT_number 94
_symmetry_cell_setting 'tetragonal'
loop_
_space_group_symop_operation_xyz
x,y,z
1/2-y,1/2+x,1/2+z
-x,-y,z
1/2+y,1/2-x,1/2+z
1/2+x,1/2-y,1/2-z
1/2-x,1/2+y,1/2-z
y,x,-z
-y,-x,-z
loop_
_atom_site_type_symbol
_atom_site_label
_atom_site_fract_x
_atom_site_fract_y
_atom_site_fract_z
Si Si1 0.665654 0.670832 0.445952
Si Si2 0.487085 0.664410 0.800185
Si Si3 0.324796 0.246931 0.141061
Si Si4 0.330916 0.513342 0.305673
Si Si5 0.664234 0.343100 0.553716
Si Si6 0.781752 0.341215 0.858737
O O1 0.699594 0.699594 0.500000
O O2 0.503442 0.708580 0.437226
O O3 0.666787 0.502963 0.440818
O O4 0.774992 0.736244 0.410044
O O5 0.500000 0.500000 0.793464
O O6 0.600576 0.695593 0.838776
O O7 0.506463 0.717232 0.747815
O O8 0.341068 0.695843 0.823295
O O9 0.227651 0.157876 0.175526
O O10 0.262307 0.230064 0.089942
O O11 0.489798 0.206443 0.141228
O O12 0.500000 0.500000 0.310384
O O13 0.244956 0.409108 0.337910
O O14 0.692182 0.307819 0.500000
#
# Coordination Sequence:
#
# PCOD9550297 Si02
#       6
#     8   8   8   8   8   8
#     4   9  18  35  58  81 108 146 188 235 286 338
#     4   9  22  39  55  81 121 155 187 235 284 345
#     4  11  21  37  59  84 115 150 191 240 287 338
#     4  11  21  37  61  85 113 153 195 231 286 341
#     4   9  18  35  58  81 108 146 188 235 286 338
#     4  11  21  37  59  84 115 150 191 240 287 338
#
# _framework density 17.999313999999998
#
# number of rings (size 3 to 8) (size 9 to 14) (size 15 to 20)
#    0.000    2.000    1.667    3.500    0.000    0.000 
#    3.000    8.333    0.000    0.000    0.000    0.000 
#    0.000    0.000    0.000    0.000    0.000    0.000 
#
# Total GULP energy -267330.393933 kJ/mol
# GULP energy per Si atom -5569.383207 kJ/mol
# Density = 1.795835 g / cm^3
# Si number density = 17.999314 Si / 1000 Ang^3
#
#
#
# Elastic Constant Matrix: (Units=GPa)
#
#
# Indices 1 2 3 4 5 6 
#
# 1 34.2486 -2.3863 18.4685 0.0000 0.0000 0.0000
# 2 -2.3863 34.2488 18.4686 0.0000 0.0000 0.0000
# 3 18.4685 18.4686 128.1570 0.0000 0.0000 0.0000
# 4 0.0000 0.0000 0.0000 -30.9342 0.0000 0.0000
# 5 0.0000 0.0000 0.0000 0.0000 -30.9312 0.0000
# 6 0.0000 0.0000 0.0000 0.0000 0.0000 10.7733
#
#
#
# Elastic Compliance Matrix: (Units=1/GPa)
#
#
# Indices 1 2 3 4 5 6 
#
# 1 0.032488 0.005192 -0.005430 0.000000 0.000000 0.000000
# 2 0.005192 0.032488 -0.005430 0.000000 0.000000 0.000000
# 3 -0.005430 -0.005430 0.009368 0.000000 0.000000 0.000000
# 4 0.000000 0.000000 0.000000 -0.032327 0.000000 0.000000
# 5 0.000000 0.000000 0.000000 0.000000 -0.032330 0.000000
# 6 0.000000 0.000000 0.000000 0.000000 0.000000 0.092822
#
#
# Mechanical properties :
#
#
# Convention : Reuss Voigt Hill
#
# Bulk Modulus (GPa) = 15.87111 29.52846 22.69979
# Shear Modulus (GPa) = 37.07863 0.58847 18.83355
#
# Velocity S-wave (km/s) = 4.54365 0.57241 3.23824
# Velocity P-wave (km/s) = 6.03018 4.10826 5.15950
#
# Compressibility (1/GPa) = 0.06300756
#
# Stress axis : x y z
#
# Youngs Moduli (GPa) = 30.78048 30.78059 106.74691
#
# Poissons Ratio (x) = -0.15980 0.57964
# Poissons Ratio (y) = -0.15980 0.57964
# Poissons Ratio (z) = 0.16714 0.16714
#
# Static dielectric constant tensor:
#      x y z
#    x 1.637710 0.000000 0.000000 
#    y 0.000000 1.637710 0.000000 
#    z 0.000000 0.000000 1.641350 
# 
# From -- ./inp_files/5605.got.cif
#   From: 2010.05.17/outbox.cif.g08.bks.cpg/sg94_3_cif.got.tgz:5605.got - 2010.06.03 19:43:16.
