data_PCOD9550254
_publ_section_title
;
Structure prediction by ZEFSAII (Michael W. Deem and Ramdas Pophale) SiO2 
 PCOD9550254
Probable space group: P 42 21 2
;
_chemical_formula_sum "Si O2"
_cell_formula_units_Z 48
_cell_length_a 8.758047
_cell_length_b 8.758047
_cell_length_c 29.607100
_cell_angle_alpha 90.000000
_cell_angle_beta 90.000000
_cell_angle_gamma 90.000000
_cell_volume 2270.964857
_symmetry_space_group_name_H-M "P 42 21 2"
_symmetry_group_IT_number 94
_symmetry_cell_setting 'tetragonal'
loop_
_space_group_symop_operation_xyz
x,y,z
1/2-y,1/2+x,1/2+z
-x,-y,z
1/2+y,1/2-x,1/2+z
1/2+x,1/2-y,1/2-z
1/2-x,1/2+y,1/2-z
y,x,-z
-y,-x,-z
loop_
_atom_site_type_symbol
_atom_site_label
_atom_site_fract_x
_atom_site_fract_y
_atom_site_fract_z
Si Si1 0.762217 0.858910 0.392753
Si Si2 0.755603 0.084137 0.717002
Si Si3 0.341876 0.243292 0.953511
Si Si4 0.565690 0.832940 0.116186
Si Si5 0.240476 0.079993 0.289719
Si Si6 0.935563 0.171592 0.044549
O O1 0.717249 0.909626 0.342465
O O2 0.655144 0.726003 0.411831
O O3 0.933075 0.793429 0.390113
O O4 0.751196 0.999130 0.427296
O O5 0.679638 0.115920 0.668299
O O6 0.642355 0.129516 0.756922
O O7 0.909071 0.185299 0.720616
O O8 0.812224 0.909045 0.717376
O O9 0.214025 0.305618 0.919006
O O10 0.289812 0.071935 0.964423
O O11 0.337065 0.337065 0.000000
O O12 0.500000 0.000000 0.107269
O O13 0.830590 0.169411 0.000000
O O14 0.000000 0.000000 0.049429
#
# Coordination Sequence:
#
# PCOD9550254 Si02
#       6
#     8   8   8   8   8   8
#     4  11  25  45  70  99 141 182 237 296 351 424
#     4  10  23  44  69  97 140 174 232 286 351 419
#     4  12  25  44  71 104 138 183 237 293 354 429
#     4  11  25  43  70 100 136 184 233 289 353 426
#     4  10  23  45  66 103 136 180 230 295 350 429
#     4  11  24  47  66  98 142 179 229 289 349 428
#
# _framework density 21.136389000000001
#
# number of rings (size 3 to 8) (size 9 to 14) (size 15 to 20)
#    0.000    1.167    3.333    2.000    7.000    2.000 
#    6.000    0.000    0.000    0.000    0.000    0.000 
#    0.000    0.000    0.000    0.000    0.000    0.000 
#
# Total GULP energy -268629.489711 kJ/mol
# GULP energy per Si atom -5596.447702 kJ/mol
# Density = 2.108828 g / cm^3
# Si number density = 21.136389 Si / 1000 Ang^3
#
#
#
# Elastic Constant Matrix: (Units=GPa)
#
#
# Indices 1 2 3 4 5 6 
#
# 1 60.0082 24.2125 43.4560 0.0000 0.0000 0.0000
# 2 24.2125 60.0077 43.4562 0.0000 0.0000 0.0000
# 3 43.4560 43.4562 136.2240 0.0000 0.0000 0.0000
# 4 0.0000 0.0000 0.0000 33.1107 0.0000 0.0000
# 5 0.0000 0.0000 0.0000 0.0000 33.1108 0.0000
# 6 0.0000 0.0000 0.0000 0.0000 0.0000 33.8459
#
#
#
# Elastic Compliance Matrix: (Units=1/GPa)
#
#
# Indices 1 2 3 4 5 6 
#
# 1 0.022818 -0.005118 -0.005647 0.000000 0.000000 0.000000
# 2 -0.005118 0.022819 -0.005647 0.000000 0.000000 0.000000
# 3 -0.005647 -0.005647 0.010943 0.000000 0.000000 0.000000
# 4 0.000000 0.000000 0.000000 0.030202 0.000000 0.000000
# 5 0.000000 0.000000 0.000000 0.000000 0.030202 0.000000
# 6 0.000000 0.000000 0.000000 0.000000 0.000000 0.029546
#
#
# Mechanical properties :
#
#
# Convention : Reuss Voigt Hill
#
# Bulk Modulus (GPa) = 42.09041 53.16549 47.62795
# Shear Modulus (GPa) = 26.69923 29.68783 28.19353
#
# Velocity S-wave (km/s) = 3.55799 3.75184 3.65620
# Velocity P-wave (km/s) = 6.06927 6.63148 6.35660
#
# Compressibility (1/GPa) = 0.02375838
#
# Stress axis : x y z
#
# Youngs Moduli (GPa) = 43.82425 43.82356 91.37901
#
# Poissons Ratio (x) = 0.22429 0.51597
# Poissons Ratio (y) = 0.22429 0.51599
# Poissons Ratio (z) = 0.24745 0.24746
#
# Static dielectric constant tensor:
#      x y z
#    x 1.761510 0.000000 0.000000 
#    y 0.000000 1.761510 0.000000 
#    z 0.000000 0.000000 1.736840 
# 
# From -- ./inp_files/5586.got.cif
#   From: 2010.05.17/outbox.cif.g08.bks.cpg/sg94_3_cif.got.tgz:5586.got - 2010.06.03 19:43:16.
