data_PCOD9550769
_publ_section_title
;
Structure prediction by ZEFSAII (Michael W. Deem and Ramdas Pophale) SiO2 
 PCOD9550769
Probable space group: P 43 21 2
;
_chemical_formula_sum "Si O2"
_cell_formula_units_Z 40
_cell_length_a 8.432188
_cell_length_b 8.432188
_cell_length_c 25.577672
_cell_angle_alpha 90.000000
_cell_angle_beta 90.000000
_cell_angle_gamma 90.000000
_cell_volume 1818.618377
_symmetry_space_group_name_H-M "P 43 21 2"
_symmetry_group_IT_number 96
_symmetry_cell_setting 'tetragonal'
loop_
_space_group_symop_operation_xyz
x,y,z
1/2-y,1/2+x,3/4+z
-x,-y,1/2+z
1/2+y,1/2-x,1/4+z
1/2+x,1/2-y,1/4-z
1/2-x,1/2+y,3/4-z
y,x,-z
-y,-x,1/2-z
loop_
_atom_site_type_symbol
_atom_site_label
_atom_site_fract_x
_atom_site_fract_y
_atom_site_fract_z
Si Si1 0.247353 0.737207 0.188554
Si Si2 0.900268 0.419069 0.438096
Si Si3 0.833714 0.228460 0.125253
Si Si4 0.726805 0.512052 0.536222
Si Si5 0.014091 0.098762 0.629872
O O1 0.233894 0.766107 0.250000
O O2 0.424773 0.707264 0.167375
O O3 0.156470 0.570433 0.179029
O O4 0.155188 0.863769 0.153527
O O5 0.870512 0.569519 0.400596
O O6 0.769541 0.283904 0.423280
O O7 0.865989 0.464352 0.497789
O O8 0.730480 0.149794 0.172563
O O9 0.960013 0.085149 0.114882
O O10 0.589776 0.589776 0.500000
O O11 0.641939 0.380804 0.572306
#
# Coordination Sequence:
#
# PCOD9550769 Si02
#       5
#     8   8   8   8   8
#     4  11  24  37  60  90 119 160 202 249 297 355
#     4  10  19  37  61  86 114 151 193 244 286 355
#     4   8  19  36  58  82 113 149 190 237 290 341
#     4   8  16  36  59  77 111 151 182 228 299 341
#     4   9  21  40  55  88 118 155 194 242 299 353
#
# _framework density 21.994721999999999
#
# number of rings (size 3 to 8) (size 9 to 14) (size 15 to 20)
#    1.200    1.600    0.000    0.600    2.800    1.600 
#    3.600    0.000    0.000    1.200    0.000    0.000 
#    0.000    0.000    0.000    0.000    0.000    0.000 
#
# Total GULP energy -222767.577536 kJ/mol
# GULP energy per Si atom -5569.189438 kJ/mol
# Density = 2.194466 g / cm^3
# Si number density = 21.994722 Si / 1000 Ang^3
#
#
#
# Elastic Constant Matrix: (Units=GPa)
#
#
# Indices 1 2 3 4 5 6 
#
# 1 27.1241 14.3949 11.9997 0.0000 0.0000 0.0000
# 2 14.3949 27.1241 11.9997 0.0000 0.0000 0.0000
# 3 11.9997 11.9997 61.0899 0.0000 0.0000 0.0000
# 4 0.0000 0.0000 0.0000 24.7590 0.0000 0.0000
# 5 0.0000 0.0000 0.0000 0.0000 24.7591 0.0000
# 6 0.0000 0.0000 0.0000 0.0000 0.0000 31.9631
#
#
#
# Elastic Compliance Matrix: (Units=1/GPa)
#
#
# Indices 1 2 3 4 5 6 
#
# 1 0.052865 -0.025695 -0.005337 0.000000 0.000000 0.000000
# 2 -0.025695 0.052865 -0.005337 0.000000 0.000000 0.000000
# 3 -0.005337 -0.005337 0.018466 0.000000 0.000000 0.000000
# 4 0.000000 0.000000 0.000000 0.040389 0.000000 0.000000
# 5 0.000000 0.000000 0.000000 0.000000 0.040389 0.000000
# 6 0.000000 0.000000 0.000000 0.000000 0.000000 0.031286
#
#
# Mechanical properties :
#
#
# Convention : Reuss Voigt Hill
#
# Bulk Modulus (GPa) = 19.43305 21.34740 20.39022
# Shear Modulus (GPa) = 15.33035 21.42585 18.37810
#
# Velocity S-wave (km/s) = 2.64294 3.12450 2.89376
# Velocity P-wave (km/s) = 4.26240 4.76901 4.52280
#
# Compressibility (1/GPa) = 0.05145873
#
# Stress axis : x y z
#
# Youngs Moduli (GPa) = 18.91610 18.91613 54.15366
#
# Poissons Ratio (x) = 0.48604 0.28902
# Poissons Ratio (y) = 0.48604 0.28901
# Poissons Ratio (z) = 0.10096 0.10095
#
# Static dielectric constant tensor:
#      x y z
#    x 1.851670 0.000000 0.000000 
#    y 0.000000 1.851670 0.000000 
#    z 0.000000 0.000000 1.851290 
# 
# From -- ./inp_files/4124.got.cif
#   From: 2010.05.17/outbox.cif.g08.bks.cpg/sg96_3_cif.got.tgz:4124.got - 2010.06.03 19:52:08.
