data_PCOD9550103
_publ_section_title
;
Structure prediction by ZEFSAII (Michael W. Deem and Ramdas Pophale) SiO2 
 PCOD9550103
Probable space group: P 42 21 2
;
_chemical_formula_sum "Si O2"
_cell_formula_units_Z 40
_cell_length_a 11.596360
_cell_length_b 11.596360
_cell_length_c 15.163169
_cell_angle_alpha 90.000000
_cell_angle_beta 90.000000
_cell_angle_gamma 90.000000
_cell_volume 2039.075722
_symmetry_space_group_name_H-M "P 42 21 2"
_symmetry_group_IT_number 94
_symmetry_cell_setting 'tetragonal'
loop_
_space_group_symop_operation_xyz
x,y,z
1/2-y,1/2+x,1/2+z
-x,-y,z
1/2+y,1/2-x,1/2+z
1/2+x,1/2-y,1/2-z
1/2-x,1/2+y,1/2-z
y,x,-z
-y,-x,-z
loop_
_atom_site_type_symbol
_atom_site_label
_atom_site_fract_x
_atom_site_fract_y
_atom_site_fract_z
Si Si1 0.517074 0.718645 0.744706
Si Si2 0.818429 0.815312 0.897323
Si Si3 0.899411 0.902357 0.599203
Si Si4 0.112916 0.546650 0.689465
Si Si5 0.764665 0.089320 0.691175
O O1 0.432431 0.686838 0.664273
O O2 0.446116 0.695281 0.835570
O O3 0.571295 0.845979 0.749832
O O4 0.625987 0.632152 0.752098
O O5 0.721516 0.904836 0.864047
O O6 0.763238 0.688668 0.879140
O O7 0.837843 0.837843 0.000000
O O8 0.868893 0.868893 0.500000
O O9 0.795806 0.969892 0.644574
O O10 0.000000 0.000000 0.594599
O O11 0.158871 0.439817 0.746482
O O12 0.000000 0.500000 0.638911
#
# Coordination Sequence:
#
# PCOD9550103 Si02
#       5
#     8   8   8   8   8
#     4  10  21  39  63  91 126 166 214 260 332 389
#     4  11  24  41  64  97 131 174 218 265 330 404
#     4   9  18  33  61  91 112 149 207 267 319 379
#     4  11  22  41  63  90 127 170 213 271 326 376
#     4  10  21  38  65  89 127 165 214 271 322 385
#
# _framework density 19.616731000000001
#
# number of rings (size 3 to 8) (size 9 to 14) (size 15 to 20)
#    0.000    1.800    4.000    0.000    8.400    0.000 
#    3.600    2.000    0.000    0.000    0.000    0.000 
#    0.000    0.000    0.000    0.000    0.000    0.000 
#
# Total GULP energy -223031.088839 kJ/mol
# GULP energy per Si atom -5575.777221 kJ/mol
# Density = 1.957208 g / cm^3
# Si number density = 19.616731 Si / 1000 Ang^3
#
#
#
# Elastic Constant Matrix: (Units=GPa)
#
#
# Indices 1 2 3 4 5 6 
#
# 1 65.5652 34.6743 42.6903 0.0000 0.0000 0.0000
# 2 34.6743 65.5652 42.6903 0.0000 0.0000 0.0000
# 3 42.6903 42.6903 116.1483 0.0000 0.0000 0.0000
# 4 0.0000 0.0000 0.0000 8.4463 0.0000 0.0000
# 5 0.0000 0.0000 0.0000 0.0000 8.4463 0.0000
# 6 0.0000 0.0000 0.0000 0.0000 0.0000 39.3836
#
#
#
# Elastic Compliance Matrix: (Units=1/GPa)
#
#
# Indices 1 2 3 4 5 6 
#
# 1 0.023447 -0.008925 -0.005338 0.000000 0.000000 0.000000
# 2 -0.008925 0.023447 -0.005338 0.000000 0.000000 0.000000
# 3 -0.005338 -0.005338 0.012533 0.000000 0.000000 0.000000
# 4 0.000000 0.000000 0.000000 0.118394 0.000000 0.000000
# 5 0.000000 0.000000 0.000000 0.000000 0.118394 0.000000
# 6 0.000000 0.000000 0.000000 0.000000 0.000000 0.025391
#
#
# Mechanical properties :
#
#
# Convention : Reuss Voigt Hill
#
# Bulk Modulus (GPa) = 49.43736 54.15426 51.79581
# Shear Modulus (GPa) = 13.60354 19.73683 16.67019
#
# Velocity S-wave (km/s) = 2.63623 3.17538 2.91829
# Velocity P-wave (km/s) = 5.87560 6.41172 6.14950
#
# Compressibility (1/GPa) = 0.02022762
#
# Stress axis : x y z
#
# Youngs Moduli (GPa) = 42.64875 42.64875 79.78619
#
# Poissons Ratio (x) = 0.38063 0.42588
# Poissons Ratio (y) = 0.38063 0.42588
# Poissons Ratio (z) = 0.22765 0.22765
#
# Static dielectric constant tensor:
#      x y z
#    x 1.723880 0.000000 0.000000 
#    y 0.000000 1.723880 0.000000 
#    z 0.000000 0.000000 1.666790 
# 
# From -- ./inp_files/3385.got.cif
#   From: 2010.05.17/outbox.cif.g08.bks.cpg/sg94_2_cif.got.tgz:3385.got - 2010.06.03 19:43:16.
