data_PCOD9550821
_publ_section_title
;
Structure prediction by ZEFSAII (Michael W. Deem and Ramdas Pophale) SiO2 
 PCOD9550821
Probable space group: P 43 21 2
;
_chemical_formula_sum "Si O2"
_cell_formula_units_Z 56
_cell_length_a 14.840324
_cell_length_b 14.840324
_cell_length_c 10.733922
_cell_angle_alpha 90.000000
_cell_angle_beta 90.000000
_cell_angle_gamma 90.000000
_cell_volume 2363.987635
_symmetry_space_group_name_H-M "P 43 21 2"
_symmetry_group_IT_number 96
_symmetry_cell_setting 'tetragonal'
loop_
_space_group_symop_operation_xyz
x,y,z
1/2-y,1/2+x,3/4+z
-x,-y,1/2+z
1/2+y,1/2-x,1/4+z
1/2+x,1/2-y,1/4-z
1/2-x,1/2+y,3/4-z
y,x,-z
-y,-x,1/2-z
loop_
_atom_site_type_symbol
_atom_site_label
_atom_site_fract_x
_atom_site_fract_y
_atom_site_fract_z
Si Si1 0.776279 0.347081 0.338774
Si Si2 0.175090 0.831556 0.516470
Si Si3 0.738298 0.928221 0.969092
Si Si4 0.898566 0.853971 0.273172
Si Si5 0.513444 0.775446 0.817662
Si Si6 0.917750 0.007098 0.101242
Si Si7 0.303733 0.905708 0.331939
O O1 0.720840 0.279161 0.250000
O O2 0.828754 0.273584 0.420523
O O3 0.697949 0.383659 0.427026
O O4 0.818254 0.433079 0.266530
O O5 0.203774 0.873239 0.380666
O O6 0.109628 0.745987 0.497025
O O7 0.112205 0.891177 0.605509
O O8 0.778949 0.890100 0.837807
O O9 0.677047 0.013653 0.929258
O O10 0.826533 0.963251 0.040477
O O11 0.683728 0.861302 0.057464
O O12 0.961435 0.813705 0.380983
O O13 0.938241 0.942860 0.214342
O O14 0.544616 0.816247 0.948853
O O15 0.994991 0.994991 0.000000
#
# Coordination Sequence:
#
# PCOD9550821 Si02
#       7
#     8   8   8   8   8   8   8
#     4  10  22  39  57  86 128 169 209 265 338 407
#     4  11  22  38  63  93 126 173 224 267 340 429
#     4   9  18  34  56  85 116 155 210 270 325 396
#     4   9  18  36  57  79 116 160 203 262 329 388
#     4  10  22  38  59  88 122 164 217 277 332 400
#     4   9  19  34  56  88 123 157 204 273 339 399
#     4  10  20  37  61  87 119 164 224 280 335 403
#
# _framework density 23.688787999999999
#
# number of rings (size 3 to 8) (size 9 to 14) (size 15 to 20)
#    0.000    2.286    0.000    3.000    0.000    5.143 
#    0.000    7.143    0.000    0.000    0.000    0.000 
#    0.000    0.000    0.000    0.000    0.000    0.000 
#
# Total GULP energy -311806.914875 kJ/mol
# GULP energy per Si atom -5567.980623 kJ/mol
# Density = 2.363487 g / cm^3
# Si number density = 23.688788 Si / 1000 Ang^3
#
#
#
# Elastic Constant Matrix: (Units=GPa)
#
#
# Indices 1 2 3 4 5 6 
#
# 1 71.5534 13.0782 19.6503 0.0000 0.0000 0.0000
# 2 13.0782 71.5524 19.6499 0.0000 0.0000 0.0000
# 3 19.6503 19.6499 71.8989 0.0000 0.0000 0.0000
# 4 0.0000 0.0000 0.0000 34.2343 0.0000 0.0000
# 5 0.0000 0.0000 0.0000 0.0000 34.2342 0.0000
# 6 0.0000 0.0000 0.0000 0.0000 0.0000 29.5177
#
#
#
# Elastic Compliance Matrix: (Units=1/GPa)
#
#
# Indices 1 2 3 4 5 6 
#
# 1 0.015317 -0.001784 -0.003699 0.000000 0.000000 0.000000
# 2 -0.001784 0.015318 -0.003699 0.000000 0.000000 0.000000
# 3 -0.003699 -0.003699 0.015930 0.000000 0.000000 0.000000
# 4 0.000000 0.000000 0.000000 0.029210 0.000000 0.000000
# 5 0.000000 0.000000 0.000000 0.000000 0.029211 0.000000
# 6 0.000000 0.000000 0.000000 0.000000 0.000000 0.033878
#
#
# Mechanical properties :
#
#
# Convention : Reuss Voigt Hill
#
# Bulk Modulus (GPa) = 35.45808 35.52906 35.49357
# Shear Modulus (GPa) = 30.00698 30.43898 30.22298
#
# Velocity S-wave (km/s) = 3.56296 3.58851 3.57576
# Velocity P-wave (km/s) = 5.65040 5.67457 5.66250
#
# Compressibility (1/GPa) = 0.02820232
#
# Stress axis : x y z
#
# Youngs Moduli (GPa) = 65.28516 65.28438 62.77391
#
# Poissons Ratio (x) = 0.11646 0.23219
# Poissons Ratio (y) = 0.11646 0.23218
# Poissons Ratio (z) = 0.24148 0.24147
#
# Static dielectric constant tensor:
#      x y z
#    x 1.961220 0.000000 0.000000 
#    y 0.000000 1.961220 0.000000 
#    z 0.000000 0.000000 2.161830 
# 
# From -- ./inp_files/2307.got.cif
#   From: 2010.05.17/outbox.cif.g08.bks.cpg/sg96_2_cif.got.tgz:2307.got - 2010.06.03 19:52:08.
