data_PCOD9550214
_publ_section_title
;
Structure prediction by ZEFSAII (Michael W. Deem and Ramdas Pophale) SiO2 
 PCOD9550214
Probable space group: P 42 21 2
;
_chemical_formula_sum "Si O2"
_cell_formula_units_Z 44
_cell_length_a 7.875209
_cell_length_b 7.875209
_cell_length_c 31.306350
_cell_angle_alpha 90.000000
_cell_angle_beta 90.000000
_cell_angle_gamma 90.000000
_cell_volume 1941.585916
_symmetry_space_group_name_H-M "P 42 21 2"
_symmetry_group_IT_number 94
_symmetry_cell_setting 'tetragonal'
loop_
_space_group_symop_operation_xyz
x,y,z
1/2-y,1/2+x,1/2+z
-x,-y,z
1/2+y,1/2-x,1/2+z
1/2+x,1/2-y,1/2-z
1/2-x,1/2+y,1/2-z
y,x,-z
-y,-x,-z
loop_
_atom_site_type_symbol
_atom_site_label
_atom_site_fract_x
_atom_site_fract_y
_atom_site_fract_z
Si Si1 0.763023 0.587521 0.298497
Si Si2 0.602777 0.229039 0.114515
Si Si3 0.399308 0.770893 0.287586
Si Si4 0.907613 0.229950 0.593741
Si Si5 0.701375 0.701375 0.000000
Si Si6 0.500000 0.000000 0.539568
Si Si7 0.000000 0.500000 0.140824
O O1 0.841805 0.627736 0.344239
O O2 0.585545 0.691499 0.295580
O O3 0.724360 0.389151 0.293416
O O4 0.875112 0.656649 0.259626
O O5 0.408930 0.292794 0.116783
O O6 0.714390 0.399676 0.110796
O O7 0.606934 0.120894 0.071306
O O8 0.374001 0.920782 0.321902
O O9 0.901519 0.177525 0.544134
O O10 0.864782 0.423283 0.605102
O O11 0.636201 0.888502 0.013536
#
# Coordination Sequence:
#
# PCOD9550214 Si02
#       7
#     8   8   8   8   4   4   4
#     4  11  25  44  65 102 138 183 239 288 352 423
#     4  10  23  43  67 100 129 186 227 286 346 424
#     4  11  26  42  69  97 141 185 234 294 348 420
#     4  10  23  41  72  93 137 175 236 285 353 431
#     4  10  22  45  66 107 130 186 230 301 360 435
#     4  10  23  39  70  98 140 176 232 289 363 434
#     4  12  23  43  64 106 128 184 226 297 351 424
#
# _framework density 22.661885000000002
#
# number of rings (size 3 to 8) (size 9 to 14) (size 15 to 20)
#    0.000    1.455    1.818    1.636    7.636    8.000 
#    0.000    0.000    0.000    6.545    0.000    0.000 
#    0.000    0.000    0.000    0.000    0.000    0.000 
#
# Total GULP energy -245014.499234 kJ/mol
# GULP energy per Si atom -5568.511346 kJ/mol
# Density = 2.261031 g / cm^3
# Si number density = 22.661885 Si / 1000 Ang^3
#
#
#
# Elastic Constant Matrix: (Units=GPa)
#
#
# Indices 1 2 3 4 5 6 
#
# 1 129.2011 44.1261 56.7986 0.0000 0.0000 0.0000
# 2 44.1261 129.2011 56.7986 0.0000 0.0000 0.0000
# 3 56.7986 56.7986 132.6693 0.0000 0.0000 0.0000
# 4 0.0000 0.0000 0.0000 25.8841 0.0000 0.0000
# 5 0.0000 0.0000 0.0000 0.0000 25.8841 0.0000
# 6 0.0000 0.0000 0.0000 0.0000 0.0000 26.1477
#
#
#
# Elastic Compliance Matrix: (Units=1/GPa)
#
#
# Indices 1 2 3 4 5 6 
#
# 1 0.009887 -0.001867 -0.003433 0.000000 0.000000 0.000000
# 2 -0.001867 0.009887 -0.003433 0.000000 0.000000 0.000000
# 3 -0.003433 -0.003433 0.010477 0.000000 0.000000 0.000000
# 4 0.000000 0.000000 0.000000 0.038634 0.000000 0.000000
# 5 0.000000 0.000000 0.000000 0.000000 0.038634 0.000000
# 6 0.000000 0.000000 0.000000 0.000000 0.000000 0.038244
#
#
# Mechanical properties :
#
#
# Convention : Reuss Voigt Hill
#
# Bulk Modulus (GPa) = 78.22825 78.50201 78.36513
# Shear Modulus (GPa) = 29.85212 31.13974 30.49593
#
# Velocity S-wave (km/s) = 3.63338 3.71091 3.67235
# Velocity P-wave (km/s) = 7.22472 7.28539 7.25512
#
# Compressibility (1/GPa) = 0.01278311
#
# Stress axis : x y z
#
# Youngs Moduli (GPa) = 101.14306 101.14306 95.44406
#
# Poissons Ratio (x) = 0.18887 0.32770
# Poissons Ratio (y) = 0.18887 0.32770
# Poissons Ratio (z) = 0.34726 0.34726
#
# Static dielectric constant tensor:
#      x y z
#    x 2.743610 0.000000 0.000000 
#    y 0.000000 2.743610 0.000000 
#    z 0.000000 0.000000 1.820430 
# 
# From -- ./inp_files/5509.got.cif
#   From: 2010.05.17/outbox.cif.g08.bks.cpg/sg94_3_cif.got.tgz:5509.got - 2010.06.03 19:43:16.
