data_PCOD9550646
_publ_section_title
;
Structure prediction by ZEFSAII (Michael W. Deem and Ramdas Pophale) SiO2 
 PCOD9550646
Probable space group: P 43 2 2
;
_chemical_formula_sum "Si O2"
_cell_formula_units_Z 36
_cell_length_a 11.570010
_cell_length_b 11.570010
_cell_length_c 11.136514
_cell_angle_alpha 90.000000
_cell_angle_beta 90.000000
_cell_angle_gamma 90.000000
_cell_volume 1490.790910
_symmetry_space_group_name_H-M "P 43 2 2"
_symmetry_group_IT_number 95
_symmetry_cell_setting 'tetragonal'
loop_
_space_group_symop_operation_xyz
x,y,z
-y,x,3/4+z
-x,-y,1/2+z
y,-x,1/4+z
x,-y,1/2-z
-x,y,-z
y,x,1/4-z
-y,-x,3/4-z
loop_
_atom_site_type_symbol
_atom_site_label
_atom_site_fract_x
_atom_site_fract_y
_atom_site_fract_z
Si Si1 0.577415 0.205103 0.316365
Si Si2 0.648092 0.822854 0.676604
Si Si3 0.797930 0.203756 0.583475
Si Si4 0.544266 0.455735 0.375000
Si Si5 0.992911 0.303843 0.284626
O O1 0.484752 0.172524 0.214655
O O2 0.692835 0.250191 0.248795
O O3 0.522587 0.318529 0.374960
O O4 0.606341 0.098015 0.404868
O O5 0.703210 0.703210 0.625000
O O6 0.721972 0.831134 0.800194
O O7 0.662166 0.924522 0.577721
O O8 0.799949 0.088558 0.507558
O O9 0.919431 0.255430 0.619186
O O10 0.492684 0.500000 0.250000
#
# Coordination Sequence:
#
# PCOD9550646 Si02
#       5
#     8   8   8   4   8
#     4  12  25  48  76 112 152 204 266 328 410 491
#     4  10  26  47  75 110 153 200 262 331 405 483
#     4  11  24  47  72 106 150 203 258 328 403 477
#     4  12  28  52  82 118 166 210 258 330 410 496
#     4  11  25  48  71 109 153 201 267 330 401 481
#
# _framework density 24.148254999999999
#
# number of rings (size 3 to 8) (size 9 to 14) (size 15 to 20)
#    0.000    0.889    2.222    2.667    1.556    8.889 
#    0.000   22.222    0.000    0.000    0.000    0.000 
#    0.000    0.000    0.000    0.000    0.000    0.000 
#
# Total GULP energy -201223.799484 kJ/mol
# GULP energy per Si atom -5589.549986 kJ/mol
# Density = 2.409329 g / cm^3
# Si number density = 24.148255 Si / 1000 Ang^3
#
#
#
# Elastic Constant Matrix: (Units=GPa)
#
#
# Indices 1 2 3 4 5 6 
#
# 1 114.8914 39.1379 55.8523 0.0000 0.0000 0.0000
# 2 39.1379 114.8904 55.8521 0.0000 0.0000 0.0000
# 3 55.8523 55.8521 152.2753 0.0000 0.0000 0.0000
# 4 0.0000 0.0000 0.0000 48.4357 0.0000 0.0000
# 5 0.0000 0.0000 0.0000 0.0000 48.4357 0.0000
# 6 0.0000 0.0000 0.0000 0.0000 0.0000 2.3484
#
#
#
# Elastic Compliance Matrix: (Units=1/GPa)
#
#
# Indices 1 2 3 4 5 6 
#
# 1 0.011023 -0.002178 -0.003244 0.000000 0.000000 0.000000
# 2 -0.002178 0.011023 -0.003244 0.000000 0.000000 0.000000
# 3 -0.003244 -0.003244 0.008947 0.000000 0.000000 0.000000
# 4 0.000000 0.000000 0.000000 0.020646 0.000000 0.000000
# 5 0.000000 0.000000 0.000000 0.000000 0.020646 0.000000
# 6 0.000000 0.000000 0.000000 0.000000 0.000000 0.425822
#
#
# Mechanical properties :
#
#
# Convention : Reuss Voigt Hill
#
# Bulk Modulus (GPa) = 73.20577 75.97130 74.58853
# Shear Modulus (GPa) = 9.61552 35.25829 22.43690
#
# Velocity S-wave (km/s) = 1.99763 3.82524 3.05147
# Velocity P-wave (km/s) = 5.97508 7.14413 6.58560
#
# Compressibility (1/GPa) = 0.01366013
#
# Stress axis : x y z
#
# Youngs Moduli (GPa) = 90.72038 90.71963 111.77031
#
# Poissons Ratio (x) = 0.19757 0.36261
# Poissons Ratio (y) = 0.19758 0.36261
# Poissons Ratio (z) = 0.29432 0.29432
#
# Static dielectric constant tensor:
#      x y z
#    x 1.917360 0.000000 0.000000 
#    y 0.000000 1.917370 0.000000 
#    z 0.000000 0.000000 1.983870 
# 
# From -- ./inp_files/3529.got.cif
#   From: 2010.05.17/outbox.cif.g08.bks.cpg/sg95_2_cif.got.tgz:3529.got - 2010.06.03 19:46:49.
