data_PCOD9550531
_publ_section_title
;
Structure prediction by ZEFSAII (Michael W. Deem and Ramdas Pophale) SiO2 
 PCOD9550531
Probable space group: P 43 2 2
;
_chemical_formula_sum "Si O2"
_cell_formula_units_Z 24
_cell_length_a 14.386839
_cell_length_b 14.386839
_cell_length_c 5.259808
_cell_angle_alpha 90.000000
_cell_angle_beta 90.000000
_cell_angle_gamma 90.000000
_cell_volume 1088.681037
_symmetry_space_group_name_H-M "P 43 2 2"
_symmetry_group_IT_number 95
_symmetry_cell_setting 'tetragonal'
loop_
_space_group_symop_operation_xyz
x,y,z
-y,x,3/4+z
-x,-y,1/2+z
y,-x,1/4+z
x,-y,1/2-z
-x,y,-z
y,x,1/4-z
-y,-x,3/4-z
loop_
_atom_site_type_symbol
_atom_site_label
_atom_site_fract_x
_atom_site_fract_y
_atom_site_fract_z
Si Si1 0.500000 0.277483 0.500000
Si Si2 0.199676 0.670533 0.004230
Si Si3 0.941404 0.794237 0.748611
Si Si4 0.630380 0.630380 0.625000
O O1 0.414223 0.208412 0.559589
O O2 0.462260 0.348099 0.283515
O O3 0.109050 0.700958 0.151410
O O4 0.281919 0.641368 0.191048
O O5 0.234224 0.765777 0.875000
O O6 0.868507 0.868507 0.625000
O O7 0.000000 0.769563 0.500000
O O8 0.000000 0.828525 0.000000
#
# Coordination Sequence:
#
# PCOD9550531 Si02
#       4
#     4   8   8   4
#     4  10  22  38  76 102 138 192 244 292 348 422
#     4  10  21  42  72  98 139 193 232 284 355 429
#     4  12  26  46  77 109 143 187 237 295 369 443
#     4  10  20  40  72  96 142 188 232 296 348 420
#
# _framework density 22.045024000000002
#
# number of rings (size 3 to 8) (size 9 to 14) (size 15 to 20)
#    0.000    1.333    1.667    4.000    4.667    1.333 
#    0.000    1.667  139.333    0.000    0.000    0.000 
#    0.000    0.000    0.000    0.000    0.000    0.000 
#
# Total GULP energy -133767.911040 kJ/mol
# GULP energy per Si atom -5573.662960 kJ/mol
# Density = 2.199485 g / cm^3
# Si number density = 22.045024 Si / 1000 Ang^3
#
#
#
# Elastic Constant Matrix: (Units=GPa)
#
#
# Indices 1 2 3 4 5 6 
#
# 1 60.9703 83.3593 44.9042 0.0000 0.0000 0.0000
# 2 83.3593 60.9799 44.9133 0.0000 0.0000 0.0000
# 3 44.9042 44.9133 124.2775 0.0000 0.0000 0.0000
# 4 0.0000 0.0000 0.0000 39.6145 0.0000 0.0000
# 5 0.0000 0.0000 0.0000 0.0000 39.6149 0.0000
# 6 0.0000 0.0000 0.0000 0.0000 0.0000 9.3035
#
#
#
# Elastic Compliance Matrix: (Units=1/GPa)
#
#
# Indices 1 2 3 4 5 6 
#
# 1 -0.017869 0.026806 -0.003231 0.000000 0.000000 0.000000
# 2 0.026806 -0.017867 -0.003229 0.000000 0.000000 0.000000
# 3 -0.003231 -0.003229 0.010381 0.000000 0.000000 0.000000
# 4 0.000000 0.000000 0.000000 0.025243 0.000000 0.000000
# 5 0.000000 0.000000 0.000000 0.000000 0.025243 0.000000
# 6 0.000000 0.000000 0.000000 0.000000 0.000000 0.107486
#
#
# Mechanical properties :
#
#
# Convention : Reuss Voigt Hill
#
# Bulk Modulus (GPa) = 65.19878 65.84236 65.52057
# Shear Modulus (GPa) = 51.52667 22.57663 37.05165
#
# Velocity S-wave (km/s) = 4.83985 3.20365 4.10411
# Velocity P-wave (km/s) = 7.80203 6.60428 7.22801
#
# Compressibility (1/GPa) = 0.01533771
#
# Stress axis : x y z
#
# Youngs Moduli (GPa) = -55.96416 -55.96796 96.33135
#
# Poissons Ratio (x) = 1.50029 0.31128
# Poissons Ratio (y) = 1.50019 0.31101
# Poissons Ratio (z) = -0.18084 -0.18069
#
# Static dielectric constant tensor:
#      x y z
#    x 1.838960 0.000000 0.000000 
#    y 0.000000 1.838960 0.000000 
#    z 0.000000 0.000000 2.036430 
# 
# From -- ./inp_files/271.got.cif
#   From: 2010.05.17/outbox.cif.g08.bks.cpg/sg95_1_cif.got.tgz:271.got - 2010.06.03 19:46:49.
