data_PCOD9551604
_publ_section_title
;
Structure prediction by ZEFSAII (Michael W. Deem and Ramdas Pophale) SiO2 
 PCOD9551604
Probable space group: I 4 2 2 
;
_chemical_formula_sum "Si O2"
_cell_formula_units_Z 96
_cell_length_a 15.134728
_cell_length_b 15.134728
_cell_length_c 19.641163
_cell_angle_alpha 90.000000
_cell_angle_beta 90.000000
_cell_angle_gamma 90.000000
_cell_volume 4499.004632
_symmetry_space_group_name_H-M "I 4 2 2 "
_symmetry_group_IT_number 97
_symmetry_cell_setting 'tetragonal'
loop_
_space_group_symop_operation_xyz
x,y,z
-y,x,z
-x,-y,z
y,-x,z
x,-y,-z
-x,y,-z
y,x,-z
-y,-x,-z
1/2+x,1/2+y,1/2+z
1/2-y,1/2+x,1/2+z
1/2-x,1/2-y,1/2+z
1/2+y,1/2-x,1/2+z
1/2+x,1/2-y,1/2-z
1/2-x,1/2+y,1/2-z
1/2+y,1/2+x,1/2-z
1/2-y,1/2-x,1/2-z
loop_
_atom_site_type_symbol
_atom_site_label
_atom_site_fract_x
_atom_site_fract_y
_atom_site_fract_z
Si Si1 0.854488 0.000000 0.000000
Si Si2 0.680217 0.699192 0.800027
Si Si3 0.313457 0.775255 0.057603
Si Si4 0.205935 0.500000 0.000000
Si Si5 0.947910 0.589973 0.628747
Si Si6 0.286435 0.026938 0.887633
Si Si7 0.256940 0.987943 0.730836
O O1 0.915448 0.084553 0.000000
O O2 0.796675 0.996648 0.932633
O O3 0.733901 0.766100 0.750000
O O4 0.711882 0.715813 0.877177
O O5 0.696965 0.599483 0.774715
O O6 0.576091 0.720644 0.804679
O O7 0.317811 0.876329 0.086023
O O8 0.239916 0.760085 0.000000
O O9 0.407335 0.748536 0.022211
O O10 0.145577 0.481844 0.934686
O O11 0.854795 0.552683 0.604030
O O12 0.957123 0.652760 0.694076
O O13 0.000000 0.500000 0.643091
O O14 0.269509 0.022796 0.807303
#
# Coordination Sequence:
#
# PCOD9551604 Si02
#       7
#     8  16  16   8  16  16  16
#     4  11  28  48  69 102 142 192 251 298 360 451
#     4  12  26  52  73 112 153 197 257 314 385 456
#     4  12  26  44  76 106 153 194 245 313 382 458
#     4  12  23  44  68 109 144 192 244 303 374 454
#     4  12  24  43  71 112 147 185 240 306 386 455
#     4  12  25  45  74 106 145 190 238 306 382 447
#     4  12  28  47  77 108 149 201 253 315 377 459
#
# _framework density 21.338052000000001
#
# number of rings (size 3 to 8) (size 9 to 14) (size 15 to 20)
#    0.000    0.083    5.000    4.250    2.333    3.667 
#    0.000    0.000    0.000    0.250    0.000    0.000 
#    0.000    0.000    0.000    0.000    0.000    0.000 
#
# Total GULP energy -268330.347610 kJ/mol
# GULP energy per Si atom -5590.215575 kJ/mol
# Density = 2.128949 g / cm^3
# Si number density = 21.338052 Si / 1000 Ang^3
#
#
#
# Elastic Constant Matrix: (Units=GPa)
#
#
# Indices 1 2 3 4 5 6 
#
# 1 106.9146 35.4418 44.1247 0.0000 0.0000 0.0000
# 2 35.4418 106.9114 44.1243 0.0000 0.0000 0.0000
# 3 44.1247 44.1243 134.9657 0.0000 0.0000 0.0000
# 4 0.0000 0.0000 0.0000 18.9678 0.0000 0.0000
# 5 0.0000 0.0000 0.0000 0.0000 18.9479 0.0000
# 6 0.0000 0.0000 0.0000 0.0000 0.0000 40.2917
#
#
#
# Elastic Compliance Matrix: (Units=1/GPa)
#
#
# Indices 1 2 3 4 5 6 
#
# 1 0.011401 -0.002591 -0.002880 0.000000 0.000000 0.000000
# 2 -0.002591 0.011401 -0.002880 0.000000 0.000000 0.000000
# 3 -0.002880 -0.002880 0.009293 0.000000 0.000000 0.000000
# 4 0.000000 0.000000 0.000000 0.052721 0.000000 0.000000
# 5 0.000000 0.000000 0.000000 0.000000 0.052776 0.000000
# 6 0.000000 0.000000 0.000000 0.000000 0.000000 0.024819
#
#
# Mechanical properties :
#
#
# Convention : Reuss Voigt Hill
#
# Bulk Modulus (GPa) = 64.96961 66.24146 65.60553
# Shear Modulus (GPa) = 27.13790 30.64822 28.89306
#
# Velocity S-wave (km/s) = 3.57011 3.79399 3.68375
# Velocity P-wave (km/s) = 6.89261 7.09251 6.99328
#
# Compressibility (1/GPa) = 0.01539181
#
# Stress axis : x y z
#
# Youngs Moduli (GPa) = 87.71319 87.71046 107.61200
#
# Poissons Ratio (x) = 0.22723 0.30996
# Poissons Ratio (y) = 0.22724 0.30997
# Poissons Ratio (z) = 0.25264 0.25264
#
# Static dielectric constant tensor:
#      x y z
#    x 1.810700 0.000000 0.000000 
#    y 0.000000 1.810770 0.000000 
#    z 0.000000 0.000000 1.771490 
# 
# From -- ./inp_files/6685.got.cif
#   From: 2010.05.17/outbox.cif.g08.bks.cpg/sg97_4_cif.got.tgz:6685.got - 2010.06.03 19:55:32.
