data_PCOD9551368
_publ_section_title
;
Structure prediction by ZEFSAII (Michael W. Deem and Ramdas Pophale) SiO2 
 PCOD9551368
Probable space group: I 4 2 2 
;
_chemical_formula_sum "Si O2"
_cell_formula_units_Z 56
_cell_length_a 18.074760
_cell_length_b 18.074760
_cell_length_c 7.096739
_cell_angle_alpha 90.000000
_cell_angle_beta 90.000000
_cell_angle_gamma 90.000000
_cell_volume 2318.482980
_symmetry_space_group_name_H-M "I 4 2 2 "
_symmetry_group_IT_number 97
_symmetry_cell_setting 'tetragonal'
loop_
_space_group_symop_operation_xyz
x,y,z
-y,x,z
-x,-y,z
y,-x,z
x,-y,-z
-x,y,-z
y,x,-z
-y,-x,-z
1/2+x,1/2+y,1/2+z
1/2-y,1/2+x,1/2+z
1/2-x,1/2-y,1/2+z
1/2+y,1/2-x,1/2+z
1/2+x,1/2-y,1/2-z
1/2-x,1/2+y,1/2-z
1/2+y,1/2+x,1/2-z
1/2-y,1/2-x,1/2-z
loop_
_atom_site_type_symbol
_atom_site_label
_atom_site_fract_x
_atom_site_fract_y
_atom_site_fract_z
Si Si1 0.641228 0.141228 0.250000
Si Si2 0.902843 0.801925 0.244209
Si Si3 0.427604 0.708477 0.708641
Si Si4 0.864367 0.480635 0.220149
O O1 0.725622 0.133234 0.323036
O O2 0.557555 0.139376 0.337449
O O3 0.847967 0.868406 0.292118
O O4 0.990093 0.811607 0.285183
O O5 0.911528 0.797067 0.015589
O O6 0.426245 0.795856 0.744023
O O7 0.939847 0.439847 0.250000
O O8 0.858344 0.500000 0.000000
#
# Coordination Sequence:
#
# PCOD9551368 Si02
#       4
#     8  16  16  16
#     4  10  21  36  52  82 116 153 204 260 322 388
#     4   9  18  35  57  82 117 157 204 268 323 391
#     4   9  19  35  56  84 117 155 208 260 325 394
#     4  11  23  38  59  88 122 167 214 269 334 407
#
# _framework density 24.153725999999999
#
# number of rings (size 3 to 8) (size 9 to 14) (size 15 to 20)
#    0.000    2.286    0.000    2.143    2.000    5.143 
#    0.000    7.143    0.000    0.000    0.000    8.000 
#    0.000    0.000    0.000    0.000    0.000    0.000 
#
# Total GULP energy -155956.518259 kJ/mol
# GULP energy per Si atom -5569.875652 kJ/mol
# Density = 2.409875 g / cm^3
# Si number density = 24.153726 Si / 1000 Ang^3
#
#
#
# Elastic Constant Matrix: (Units=GPa)
#
#
# Indices 1 2 3 4 5 6 
#
# 1 172.6211 158.4104 14.5289 0.0000 0.0000 0.0000
# 2 158.4104 172.6211 14.5289 0.0000 0.0000 0.0000
# 3 14.5289 14.5289 109.9737 0.0000 0.0000 0.0000
# 4 0.0000 0.0000 0.0000 16.3822 0.0000 0.0000
# 5 0.0000 0.0000 0.0000 0.0000 16.3822 0.0000
# 6 0.0000 0.0000 0.0000 0.0000 0.0000 69.2369
#
#
#
# Elastic Compliance Matrix: (Units=1/GPa)
#
#
# Indices 1 2 3 4 5 6 
#
# 1 0.036713 -0.033656 -0.000404 0.000000 0.000000 0.000000
# 2 -0.033656 0.036713 -0.000404 0.000000 0.000000 0.000000
# 3 -0.000404 -0.000404 0.009200 0.000000 0.000000 0.000000
# 4 0.000000 0.000000 0.000000 0.061042 0.000000 0.000000
# 5 0.000000 0.000000 0.000000 0.000000 0.061042 0.000000
# 6 0.000000 0.000000 0.000000 0.000000 0.000000 0.014443
#
#
# Mechanical properties :
#
#
# Convention : Reuss Voigt Hill
#
# Bulk Modulus (GPa) = 73.00723 92.23915 82.62319
# Shear Modulus (GPa) = 17.08552 38.25012 27.66782
#
# Velocity S-wave (km/s) = 2.66252 3.98378 3.38818
# Velocity P-wave (km/s) = 6.30426 7.70921 7.04186
#
# Compressibility (1/GPa) = 0.01369727
#
# Stress axis : x y z
#
# Youngs Moduli (GPa) = 27.23853 27.23853 108.69837
#
# Poissons Ratio (x) = 0.91675 0.04389
# Poissons Ratio (y) = 0.91675 0.04389
# Poissons Ratio (z) = 0.01100 0.01100
#
# Static dielectric constant tensor:
#      x y z
#    x 1.915180 0.000000 0.000000 
#    y 0.000000 1.915180 0.000000 
#    z 0.000000 0.000000 2.078600 
# 
# From -- ./inp_files/1818.got.cif
#   From: 2010.05.17/outbox.cif.g08.bks.cpg/sg97_1_cif.got.tgz:1818.got - 2010.06.03 19:55:32.
