data_PCOD9551706
_publ_section_title
;
Structure prediction by ZEFSAII (Michael W. Deem and Ramdas Pophale) SiO2 
 PCOD9551706
Probable space group: I 41 2 2
;
_chemical_formula_sum "Si O2"
_cell_formula_units_Z 80
_cell_length_a 30.272896
_cell_length_b 30.272896
_cell_length_c 5.117635
_cell_angle_alpha 90.000000
_cell_angle_beta 90.000000
_cell_angle_gamma 90.000000
_cell_volume 4690.047549
_symmetry_space_group_name_H-M "I 41 2 2"
_symmetry_group_IT_number 98
_symmetry_cell_setting 'tetragonal'
loop_
_space_group_symop_operation_xyz
x,y,z
-y,1/2+x,1/4+z
-x,-y,z
y,1/2-x,1/4+z
x,1/2-y,1/4-z
-x,1/2+y,1/4-z
y,x,-z
-y,-x,-z
1/2+x,1/2+y,1/2+z
1/2-y,x,3/4+z
1/2-x,1/2-y,1/2+z
1/2+y,-x,3/4+z
1/2+x,-y,3/4-z
1/2-x,y,3/4-z
1/2+y,1/2+x,1/2-z
1/2-y,1/2-x,1/2-z
loop_
_atom_site_type_symbol
_atom_site_label
_atom_site_fract_x
_atom_site_fract_y
_atom_site_fract_z
Si Si1 0.915568 0.915568 0.000000
Si Si2 0.584409 0.780781 0.379026
Si Si3 0.871374 0.439256 0.689983
Si Si4 0.516657 0.219578 0.377540
Si Si5 0.913832 0.481286 0.195337
Si Si6 0.872032 0.872032 0.500000
O O1 0.899592 0.888451 0.749524
O O2 0.908660 0.967973 0.981786
O O3 0.596445 0.750000 0.625000
O O4 0.533788 0.797557 0.426513
O O5 0.616372 0.821753 0.323227
O O6 0.584020 0.750000 0.125000
O O7 0.890533 0.390533 0.750000
O O8 0.819930 0.450274 0.691457
O O9 0.885725 0.452747 0.399653
O O10 0.896810 0.470014 0.904127
O O11 0.528875 0.250000 0.625000
O O12 0.514061 0.250000 0.125000
O O13 0.963023 0.463023 0.250000
#
# Coordination Sequence:
#
# PCOD9551706 Si02
#       6
#     8  16  16  16  16   8
#     4  12  21  32  50  76 105 130 174 215 244 301
#     4  10  21  37  55  77 104 130 163 210 259 313
#     4  10  20  34  50  71 102 140 177 213 255 306
#     4  10  19  32  52  75 102 135 171 211 258 303
#     4  10  20  32  47  68 102 143 175 206 248 297
#     4  12  24  36  57  80  99 132 170 217 270 315
#
# _framework density 17.057397999999999
#
# number of rings (size 3 to 8) (size 9 to 14) (size 15 to 20)
#    0.000    1.600    0.000    6.300    0.000    3.200 
#    0.000    4.000    0.000    1.200    0.000    0.000 
#    0.000    1.600    0.000    0.000    0.000    0.000 
#
# Total GULP energy -223186.024926 kJ/mol
# GULP energy per Si atom -5579.650623 kJ/mol
# Density = 1.701857 g / cm^3
# Si number density = 17.057398 Si / 1000 Ang^3
#
#
#
# Elastic Constant Matrix: (Units=GPa)
#
#
# Indices 1 2 3 4 5 6 
#
# 1 101.8955 63.0141 27.8338 0.0000 0.0000 0.0000
# 2 63.0141 101.8955 27.8338 0.0000 0.0000 0.0000
# 3 27.8338 27.8338 106.2062 0.0000 0.0000 0.0000
# 4 0.0000 0.0000 0.0000 22.2457 0.0000 0.0000
# 5 0.0000 0.0000 0.0000 0.0000 22.2457 0.0000
# 6 0.0000 0.0000 0.0000 0.0000 0.0000 30.0831
#
#
#
# Elastic Compliance Matrix: (Units=1/GPa)
#
#
# Indices 1 2 3 4 5 6 
#
# 1 0.016186 -0.009533 -0.001743 0.000000 0.000000 0.000000
# 2 -0.009533 0.016186 -0.001743 0.000000 0.000000 0.000000
# 3 -0.001743 -0.001743 0.010329 0.000000 0.000000 0.000000
# 4 0.000000 0.000000 0.000000 0.044952 0.000000 0.000000
# 5 0.000000 0.000000 0.000000 0.000000 0.044952 0.000000
# 6 0.000000 0.000000 0.000000 0.000000 0.000000 0.033241
#
#
# Mechanical properties :
#
#
# Convention : Reuss Voigt Hill
#
# Bulk Modulus (GPa) = 60.02169 60.81783 60.41976
# Shear Modulus (GPa) = 25.32398 27.66928 26.49663
#
# Velocity S-wave (km/s) = 3.85727 4.03193 3.94557
# Velocity P-wave (km/s) = 7.42311 7.57678 7.50034
#
# Compressibility (1/GPa) = 0.01666064
#
# Stress axis : x y z
#
# Youngs Moduli (GPa) = 61.78245 61.78245 96.81052
#
# Poissons Ratio (x) = 0.58900 0.16878
# Poissons Ratio (y) = 0.58900 0.16878
# Poissons Ratio (z) = 0.10771 0.10771
#
# Static dielectric constant tensor:
#      x y z
#    x 1.600530 0.000000 0.000000 
#    y 0.000000 1.600530 0.000000 
#    z 0.000000 0.000000 1.583170 
# 
# From -- ./inp_files/1783.got.cif
#   From: 2010.05.17/outbox.cif.g08.bks.cpg/sg98_1_cif.got.tgz:1783.got - 2010.06.03 20:00:51.
