data_PCOD9551676
_publ_section_title
;
Structure prediction by ZEFSAII (Michael W. Deem and Ramdas Pophale) SiO2 
 PCOD9551676
Probable space group: I 41 2 2
;
_chemical_formula_sum "Si O2"
_cell_formula_units_Z 88
_cell_length_a 12.126118
_cell_length_b 12.126118
_cell_length_c 32.203292
_cell_angle_alpha 90.000000
_cell_angle_beta 90.000000
_cell_angle_gamma 90.000000
_cell_volume 4735.260220
_symmetry_space_group_name_H-M "I 41 2 2"
_symmetry_group_IT_number 98
_symmetry_cell_setting 'tetragonal'
loop_
_space_group_symop_operation_xyz
x,y,z
-y,1/2+x,1/4+z
-x,-y,z
y,1/2-x,1/4+z
x,1/2-y,1/4-z
-x,1/2+y,1/4-z
y,x,-z
-y,-x,-z
1/2+x,1/2+y,1/2+z
1/2-y,x,3/4+z
1/2-x,1/2-y,1/2+z
1/2+y,-x,3/4+z
1/2+x,-y,3/4-z
1/2-x,y,3/4-z
1/2+y,1/2+x,1/2-z
1/2-y,1/2-x,1/2-z
loop_
_atom_site_type_symbol
_atom_site_label
_atom_site_fract_x
_atom_site_fract_y
_atom_site_fract_z
Si Si1 0.270192 0.130479 0.134045
Si Si2 0.250000 0.670467 0.375000
Si Si3 0.788966 0.377447 0.984386
Si Si4 0.004388 0.622439 0.671478
Si Si5 0.879890 0.045735 0.181158
Si Si6 0.423297 0.656407 0.840476
O O1 0.220319 0.250000 0.125000
O O2 0.379766 0.156101 0.161118
O O3 0.186535 0.046201 0.155450
O O4 0.313675 0.051218 0.096938
O O5 0.162948 0.612921 0.406313
O O6 0.335030 0.745807 0.401317
O O7 0.701022 0.433259 0.953224
O O8 0.898117 0.377308 0.956262
O O9 0.738931 0.261070 0.000000
O O10 0.811891 0.439713 0.026797
O O11 0.000000 0.500000 0.689776
O O12 0.070552 0.608966 0.627550
O O13 0.000000 0.000000 0.189515
#
# Coordination Sequence:
#
# PCOD9551676 Si02
#       6
#    16   8  16  16  16  16
#     4  10  22  39  58  87 118 165 205 244 317 372
#     4  10  18  42  60  82 116 152 216 242 302 366
#     4  12  20  35  59  93 128 154 203 261 307 371
#     4  10  20  34  59  93 131 163 189 231 319 394
#     4  11  26  39  60  89 113 163 218 266 308 358
#     4  10  18  35  63  91 120 165 197 239 299 386
#
# _framework density 18.583984999999998
#
# number of rings (size 3 to 8) (size 9 to 14) (size 15 to 20)
#    0.000    1.455    3.636    3.273    1.273    6.182 
#    0.000    0.000    0.000    0.000    0.000    2.545 
#    0.000    0.000    0.000    0.000    0.000    0.000 
#
# Total GULP energy -245244.112890 kJ/mol
# GULP energy per Si atom -5573.729838 kJ/mol
# Density = 1.854169 g / cm^3
# Si number density = 18.583985 Si / 1000 Ang^3
#
#
#
# Elastic Constant Matrix: (Units=GPa)
#
#
# Indices 1 2 3 4 5 6 
#
# 1 87.2373 26.0832 32.5312 0.0000 0.0000 0.0000
# 2 26.0832 87.2389 32.5319 0.0000 0.0000 0.0000
# 3 32.5312 32.5319 77.5382 0.0000 0.0000 0.0000
# 4 0.0000 0.0000 0.0000 9.2872 0.0000 0.0000
# 5 0.0000 0.0000 0.0000 0.0000 9.2874 0.0000
# 6 0.0000 0.0000 0.0000 0.0000 0.0000 17.3669
#
#
#
# Elastic Compliance Matrix: (Units=1/GPa)
#
#
# Indices 1 2 3 4 5 6 
#
# 1 0.013988 -0.002364 -0.004877 0.000000 0.000000 0.000000
# 2 -0.002364 0.013988 -0.004877 0.000000 0.000000 0.000000
# 3 -0.004877 -0.004877 0.016989 0.000000 0.000000 0.000000
# 4 0.000000 0.000000 0.000000 0.107675 0.000000 0.000000
# 5 0.000000 0.000000 0.000000 0.000000 0.107673 0.000000
# 6 0.000000 0.000000 0.000000 0.000000 0.000000 0.057581
#
#
# Mechanical properties :
#
#
# Convention : Reuss Voigt Hill
#
# Bulk Modulus (GPa) = 48.23936 48.25635 48.24786
# Shear Modulus (GPa) = 14.32498 17.91284 16.11891
#
# Velocity S-wave (km/s) = 2.77938 3.10802 2.94828
# Velocity P-wave (km/s) = 6.02609 6.23720 6.13256
#
# Compressibility (1/GPa) = 0.02072996
#
# Stress axis : x y z
#
# Youngs Moduli (GPa) = 71.48778 71.48876 58.86035
#
# Poissons Ratio (x) = 0.16897 0.28707
# Poissons Ratio (y) = 0.16897 0.28708
# Poissons Ratio (z) = 0.34866 0.34867
#
# Static dielectric constant tensor:
#      x y z
#    x 1.676300 0.000000 0.000000 
#    y 0.000000 1.676290 0.000000 
#    z 0.000000 0.000000 1.679160 
# 
# From -- ./inp_files/11973.got.cif
#   From: 2010.05.17/outbox.cif.g08.bks.cpg/sg98_6_cif.got.tgz:11973.got - 2010.06.03 20:00:51.
