data_PCOD9551414
_publ_section_title
;
Structure prediction by ZEFSAII (Michael W. Deem and Ramdas Pophale) SiO2 
 PCOD9551414
Probable space group: I 4 2 2 
;
_chemical_formula_sum "Si O2"
_cell_formula_units_Z 56
_cell_length_a 10.782612
_cell_length_b 10.782612
_cell_length_c 23.131231
_cell_angle_alpha 90.000000
_cell_angle_beta 90.000000
_cell_angle_gamma 90.000000
_cell_volume 2689.346131
_symmetry_space_group_name_H-M "I 4 2 2 "
_symmetry_group_IT_number 97
_symmetry_cell_setting 'tetragonal'
loop_
_space_group_symop_operation_xyz
x,y,z
-y,x,z
-x,-y,z
y,-x,z
x,-y,-z
-x,y,-z
y,x,-z
-y,-x,-z
1/2+x,1/2+y,1/2+z
1/2-y,1/2+x,1/2+z
1/2-x,1/2-y,1/2+z
1/2+y,1/2-x,1/2+z
1/2+x,1/2-y,1/2-z
1/2-x,1/2+y,1/2-z
1/2+y,1/2+x,1/2-z
1/2-y,1/2-x,1/2-z
loop_
_atom_site_type_symbol
_atom_site_label
_atom_site_fract_x
_atom_site_fract_y
_atom_site_fract_z
Si Si1 0.954543 0.357108 0.384419
Si Si2 0.073072 0.183316 0.852729
Si Si3 0.000000 0.209463 0.500000
Si Si4 0.992894 0.701388 0.261843
O O1 0.806973 0.369053 0.377779
O O2 0.996002 0.295574 0.443526
O O3 0.000680 0.275820 0.329857
O O4 0.000000 0.500000 0.378077
O O5 0.046914 0.199664 0.783451
O O6 0.932486 0.155487 0.871408
O O7 0.119607 0.119607 0.500000
O O8 0.088604 0.588604 0.250000
O O9 0.856000 0.644001 0.250000
#
# Coordination Sequence:
#
# PCOD9551414 Si02
#       4
#    16  16   8  16
#     4  11  22  43  69  92 127 180 221 267 335 397
#     4  10  22  37  62 102 137 167 214 270 329 404
#     4  11  29  48  66  98 127 165 230 286 330 393
#     4   9  16  34  59  93 127 164 213 252 312 391
#
# _framework density 20.822904999999999
#
# number of rings (size 3 to 8) (size 9 to 14) (size 15 to 20)
#    0.000    1.857    5.714    0.429    4.000    5.714 
#    0.000    2.857    0.000    0.000    0.000    0.000 
#    0.000    0.000    0.000    0.000    0.000    0.000 
#
# Total GULP energy -156175.545466 kJ/mol
# GULP energy per Si atom -5577.698052 kJ/mol
# Density = 2.077551 g / cm^3
# Si number density = 20.822905 Si / 1000 Ang^3
#
#
#
# Elastic Constant Matrix: (Units=GPa)
#
#
# Indices 1 2 3 4 5 6 
#
# 1 34.4376 35.6439 20.4144 0.0000 0.0000 0.0000
# 2 35.6439 34.4371 20.4133 0.0000 0.0000 0.0000
# 3 20.4144 20.4133 128.8453 0.0000 0.0000 0.0000
# 4 0.0000 0.0000 0.0000 13.4183 0.0000 0.0000
# 5 0.0000 0.0000 0.0000 0.0000 13.4185 0.0000
# 6 0.0000 0.0000 0.0000 0.0000 0.0000 19.0239
#
#
#
# Elastic Compliance Matrix: (Units=1/GPa)
#
#
# Indices 1 2 3 4 5 6 
#
# 1 -0.406531 0.422252 -0.002487 0.000000 0.000000 0.000000
# 2 0.422252 -0.406532 -0.002494 0.000000 0.000000 0.000000
# 3 -0.002487 -0.002494 0.008550 0.000000 0.000000 0.000000
# 4 0.000000 0.000000 0.000000 0.074525 0.000000 0.000000
# 5 0.000000 0.000000 0.000000 0.000000 0.074524 0.000000
# 6 0.000000 0.000000 0.000000 0.000000 0.000000 0.052565
#
#
# Mechanical properties :
#
#
# Convention : Reuss Voigt Hill
#
# Bulk Modulus (GPa) = 33.30210 38.96260 36.13235
# Shear Modulus (GPa) = -3.50280 17.25538 6.87629
#
# Velocity S-wave (km/s) = -1.29840 2.88179 1.81919
# Velocity P-wave (km/s) = 3.71214 5.46123 4.66931
#
# Compressibility (1/GPa) = 0.03002813
#
# Stress axis : x y z
#
# Youngs Moduli (GPa) = -2.45984 -2.45983 116.95259
#
# Poissons Ratio (x) = 1.03867 0.29089
# Poissons Ratio (y) = 1.03867 0.29169
# Poissons Ratio (z) = -0.00612 -0.00613
#
# Static dielectric constant tensor:
#      x y z
#    x 1.767870 0.000000 0.000000 
#    y 0.000000 1.767870 0.000000 
#    z 0.000000 0.000000 1.766970 
# 
# From -- ./inp_files/6319.got.cif
#   From: 2010.05.17/outbox.cif.g08.bks.cpg/sg97_4_cif.got.tgz:6319.got - 2010.06.03 19:55:32.
