data_PCOD9551648
_publ_section_title
;
Structure prediction by ZEFSAII (Michael W. Deem and Ramdas Pophale) SiO2 
 PCOD9551648
Probable space group: I 41 2 2
;
_chemical_formula_sum "Si O2"
_cell_formula_units_Z 96
_cell_length_a 24.955048
_cell_length_b 24.955048
_cell_length_c 9.181129
_cell_angle_alpha 90.000000
_cell_angle_beta 90.000000
_cell_angle_gamma 90.000000
_cell_volume 5717.588672
_symmetry_space_group_name_H-M "I 41 2 2"
_symmetry_group_IT_number 98
_symmetry_cell_setting 'tetragonal'
loop_
_space_group_symop_operation_xyz
x,y,z
-y,1/2+x,1/4+z
-x,-y,z
y,1/2-x,1/4+z
x,1/2-y,1/4-z
-x,1/2+y,1/4-z
y,x,-z
-y,-x,-z
1/2+x,1/2+y,1/2+z
1/2-y,x,3/4+z
1/2-x,1/2-y,1/2+z
1/2+y,-x,3/4+z
1/2+x,-y,3/4-z
1/2-x,y,3/4-z
1/2+y,1/2+x,1/2-z
1/2-y,1/2-x,1/2-z
loop_
_atom_site_type_symbol
_atom_site_label
_atom_site_fract_x
_atom_site_fract_y
_atom_site_fract_z
Si Si1 0.355343 0.289769 0.397472
Si Si2 0.776428 0.395880 0.020780
Si Si3 0.454604 0.310978 0.614183
Si Si4 0.562391 0.146948 0.740005
Si Si5 0.834212 0.627818 0.604923
Si Si6 0.147749 0.703184 0.023196
O O1 0.304740 0.304740 0.500000
O O2 0.406276 0.305213 0.498190
O O3 0.358009 0.227597 0.359315
O O4 0.354056 0.326999 0.257174
O O5 0.819024 0.431683 0.110435
O O6 0.809113 0.341614 0.983710
O O7 0.730291 0.379090 0.134067
O O8 0.750000 0.418932 0.875000
O O9 0.476710 0.250000 0.625000
O O10 0.502040 0.348913 0.563414
O O11 0.427321 0.330491 0.763903
O O12 0.588077 0.088077 0.750000
O O13 0.602090 0.176558 0.625061
O O14 0.869230 0.630771 0.750000
O O15 0.172321 0.750000 0.125000
#
# Coordination Sequence:
#
# PCOD9551648 Si02
#       6
#    16  16  16  16  16  16
#     4   9  18  30  47  73 105 141 166 183 221 276
#     4  10  18  26  39  62  89 116 152 201 252 301
#     4   9  17  32  51  69  97 133 164 198 241 288
#     4   9  18  33  50  66  87 123 170 210 249 295
#     4  10  19  30  48  77 107 133 161 191 226 275
#     4   9  17  27  40  59  86 121 156 192 243 309
#
# _framework density 16.790295
#
# number of rings (size 3 to 8) (size 9 to 14) (size 15 to 20)
#    0.000    2.667    0.000    5.500    0.000    4.000 
#    0.000    5.000    0.000    4.500    0.000    1.167 
#    0.000    0.000    0.000    0.000    0.000    0.000 
#
# Total GULP energy -267576.079486 kJ/mol
# GULP energy per Si atom -5574.501656 kJ/mol
# Density = 1.675208 g / cm^3
# Si number density = 16.790295 Si / 1000 Ang^3
#
#
#
# Elastic Constant Matrix: (Units=GPa)
#
#
# Indices 1 2 3 4 5 6 
#
# 1 52.0486 30.3879 16.6084 0.0000 0.0000 0.0000
# 2 30.3879 52.0508 16.6094 0.0000 0.0000 0.0000
# 3 16.6084 16.6094 93.6938 0.0000 0.0000 0.0000
# 4 0.0000 0.0000 0.0000 15.1006 0.0000 0.0000
# 5 0.0000 0.0000 0.0000 0.0000 15.1006 0.0000
# 6 0.0000 0.0000 0.0000 0.0000 0.0000 17.6846
#
#
#
# Elastic Compliance Matrix: (Units=1/GPa)
#
#
# Indices 1 2 3 4 5 6 
#
# 1 0.029614 -0.016550 -0.002316 0.000000 0.000000 0.000000
# 2 -0.016550 0.029613 -0.002316 0.000000 0.000000 0.000000
# 3 -0.002316 -0.002316 0.011494 0.000000 0.000000 0.000000
# 4 0.000000 0.000000 0.000000 0.066223 0.000000 0.000000
# 5 0.000000 0.000000 0.000000 0.000000 0.066223 0.000000
# 6 0.000000 0.000000 0.000000 0.000000 0.000000 0.056546
#
#
# Mechanical properties :
#
#
# Convention : Reuss Voigt Hill
#
# Bulk Modulus (GPa) = 35.26326 36.11162 35.68744
# Shear Modulus (GPa) = 16.04982 18.52299 17.28641
#
# Velocity S-wave (km/s) = 3.09512 3.32504 3.21214
# Velocity P-wave (km/s) = 5.81556 6.02456 5.92098
#
# Compressibility (1/GPa) = 0.02835813
#
# Stress axis : x y z
#
# Youngs Moduli (GPa) = 33.76731 33.76854 87.00140
#
# Poissons Ratio (x) = 0.55888 0.20146
# Poissons Ratio (y) = 0.55886 0.20149
# Poissons Ratio (z) = 0.07819 0.07820
#
# Static dielectric constant tensor:
#      x y z
#    x 1.568460 0.000000 0.000000 
#    y 0.000000 1.568460 0.000000 
#    z 0.000000 0.000000 1.584380 
# 
# From -- ./inp_files/3840.got.cif
#   From: 2010.05.17/outbox.cif.g08.bks.cpg/sg98_2_cif.got.tgz:3840.got - 2010.06.03 20:00:51.
