data_PCOD9551383
_publ_section_title
;
Structure prediction by ZEFSAII (Michael W. Deem and Ramdas Pophale) SiO2 
 PCOD9551383
Probable space group: I 4 2 2 
;
_chemical_formula_sum "Si O2"
_cell_formula_units_Z 80
_cell_length_a 14.262131
_cell_length_b 14.262131
_cell_length_c 20.995939
_cell_angle_alpha 90.000000
_cell_angle_beta 90.000000
_cell_angle_gamma 90.000000
_cell_volume 4270.749952
_symmetry_space_group_name_H-M "I 4 2 2 "
_symmetry_group_IT_number 97
_symmetry_cell_setting 'tetragonal'
loop_
_space_group_symop_operation_xyz
x,y,z
-y,x,z
-x,-y,z
y,-x,z
x,-y,-z
-x,y,-z
y,x,-z
-y,-x,-z
1/2+x,1/2+y,1/2+z
1/2-y,1/2+x,1/2+z
1/2-x,1/2-y,1/2+z
1/2+y,1/2-x,1/2+z
1/2+x,1/2-y,1/2-z
1/2-x,1/2+y,1/2-z
1/2+y,1/2+x,1/2-z
1/2-y,1/2-x,1/2-z
loop_
_atom_site_type_symbol
_atom_site_label
_atom_site_fract_x
_atom_site_fract_y
_atom_site_fract_z
Si Si1 0.959733 0.229762 0.934367
Si Si2 0.362558 0.572193 0.219770
Si Si3 0.201726 0.864163 0.854088
Si Si4 0.180882 0.394535 0.018878
Si Si5 0.822811 0.799749 0.601579
O O1 0.894440 0.159716 0.893034
O O2 0.899069 0.321258 0.957024
O O3 0.050593 0.251468 0.891537
O O4 0.000000 0.187527 0.000000
O O5 0.377621 0.462440 0.225985
O O6 0.306743 0.606996 0.281056
O O7 0.327043 0.595982 0.149537
O O8 0.255029 0.766491 0.858054
O O9 0.262480 0.385712 0.072691
O O10 0.150483 0.500000 0.000000
O O11 0.233941 0.354913 0.956613
#
# Coordination Sequence:
#
# PCOD9551383 Si02
#       5
#    16  16  16  16  16
#     4  11  21  37  60  87 121 154 197 248 307 363
#     4  11  22  37  58  86 117 154 200 246 302 361
#     4  11  21  38  57  85 121 158 195 244 304 368
#     4  10  21  38  61  88 115 151 202 248 301 352
#     4  10  21  38  60  83 116 158 196 244 299 363
#
# _framework density 18.732073
#
# number of rings (size 3 to 8) (size 9 to 14) (size 15 to 20)
#    0.000    1.400    4.000    2.400    0.000    0.800 
#    0.000    1.000    0.000    4.800    0.000    2.800 
#    0.000    0.000    0.000    0.000    0.000    0.000 
#
# Total GULP energy -222901.741691 kJ/mol
# GULP energy per Si atom -5572.543542 kJ/mol
# Density = 1.868944 g / cm^3
# Si number density = 18.732073 Si / 1000 Ang^3
#
#
#
# Elastic Constant Matrix: (Units=GPa)
#
#
# Indices 1 2 3 4 5 6 
#
# 1 53.3242 5.3394 20.0607 0.0000 0.0000 0.0000
# 2 5.3394 53.3242 20.0607 0.0000 0.0000 0.0000
# 3 20.0607 20.0607 98.0566 0.0000 0.0000 0.0000
# 4 0.0000 0.0000 0.0000 28.9962 0.0000 0.0000
# 5 0.0000 0.0000 0.0000 0.0000 28.9962 0.0000
# 6 0.0000 0.0000 0.0000 0.0000 0.0000 17.3359
#
#
#
# Elastic Compliance Matrix: (Units=1/GPa)
#
#
# Indices 1 2 3 4 5 6 
#
# 1 0.020330 -0.000510 -0.004055 0.000000 0.000000 0.000000
# 2 -0.000510 0.020330 -0.004055 0.000000 0.000000 0.000000
# 3 -0.004055 -0.004055 0.011857 0.000000 0.000000 0.000000
# 4 0.000000 0.000000 0.000000 0.034487 0.000000 0.000000
# 5 0.000000 0.000000 0.000000 0.000000 0.034487 0.000000
# 6 0.000000 0.000000 0.000000 0.000000 0.000000 0.057684
#
#
# Mechanical properties :
#
#
# Convention : Reuss Voigt Hill
#
# Bulk Modulus (GPa) = 28.34684 32.84740 30.59712
# Shear Modulus (GPa) = 24.01845 25.68195 24.85020
#
# Velocity S-wave (km/s) = 3.58468 3.70674 3.64622
# Velocity P-wave (km/s) = 5.68321 5.99110 5.83919
#
# Compressibility (1/GPa) = 0.03527730
#
# Stress axis : x y z
#
# Youngs Moduli (GPa) = 49.18913 49.18913 84.33663
#
# Poissons Ratio (x) = 0.02510 0.34196
# Poissons Ratio (y) = 0.02510 0.34196
# Poissons Ratio (z) = 0.19945 0.19945
#
# Static dielectric constant tensor:
#      x y z
#    x 1.670680 0.000000 0.000000 
#    y 0.000000 1.670680 0.000000 
#    z 0.000000 0.000000 1.660170 
# 
# From -- ./inp_files/6423.got.cif
#   From: 2010.05.17/outbox.cif.g08.bks.cpg/sg97_4_cif.got.tgz:6423.got - 2010.06.03 19:55:32.
