data_PCOD9551700
_publ_section_title
;
Structure prediction by ZEFSAII (Michael W. Deem and Ramdas Pophale) SiO2 
 PCOD9551700
Probable space group: I 41 2 2
;
_chemical_formula_sum "Si O2"
_cell_formula_units_Z 72
_cell_length_a 25.302491
_cell_length_b 25.302491
_cell_length_c 7.500451
_cell_angle_alpha 90.000000
_cell_angle_beta 90.000000
_cell_angle_gamma 90.000000
_cell_volume 4801.909118
_symmetry_space_group_name_H-M "I 41 2 2"
_symmetry_group_IT_number 98
_symmetry_cell_setting 'tetragonal'
loop_
_space_group_symop_operation_xyz
x,y,z
-y,1/2+x,1/4+z
-x,-y,z
y,1/2-x,1/4+z
x,1/2-y,1/4-z
-x,1/2+y,1/4-z
y,x,-z
-y,-x,-z
1/2+x,1/2+y,1/2+z
1/2-y,x,3/4+z
1/2-x,1/2-y,1/2+z
1/2+y,-x,3/4+z
1/2+x,-y,3/4-z
1/2-x,y,3/4-z
1/2+y,1/2+x,1/2-z
1/2-y,1/2-x,1/2-z
loop_
_atom_site_type_symbol
_atom_site_label
_atom_site_fract_x
_atom_site_fract_y
_atom_site_fract_z
Si Si1 0.644673 0.567133 0.249832
Si Si2 0.700295 0.799706 0.750000
Si Si3 0.244492 0.399904 0.071422
Si Si4 0.003143 0.586651 0.723931
Si Si5 0.451303 0.356653 0.329701
O O1 0.701509 0.587992 0.177149
O O2 0.627705 0.519119 0.120520
O O3 0.601272 0.614520 0.246715
O O4 0.640754 0.548518 0.455790
O O5 0.706202 0.750000 0.625000
O O6 0.642124 0.791420 0.825027
O O7 0.205819 0.449458 0.040967
O O8 0.250000 0.375715 0.875000
O O9 0.961094 0.538907 0.750000
O O10 0.996366 0.612825 0.529313
O O11 0.060140 0.560140 0.750000
#
# Coordination Sequence:
#
# PCOD9551700 Si02
#       5
#    16   8  16  16  16
#     4  10  20  34  48  66  91 118 155 196 240 286
#     4  12  24  34  42  62  86 121 163 204 240 286
#     4  12  22  34  49  63  91 125 158 202 243 284
#     4   9  18  32  49  69  87 108 146 195 247 294
#     4  10  19  32  49  67  89 120 150 194 242 282
#
# _framework density 14.994035999999999
#
# number of rings (size 3 to 8) (size 9 to 14) (size 15 to 20)
#    0.000    1.556    2.222    5.333    0.000    2.667 
#    0.000    4.444    0.000    0.000    0.000    0.000 
#    0.000    0.000    0.000    0.000    0.000    0.000 
#
# Total GULP energy -200403.192374 kJ/mol
# GULP energy per Si atom -5566.755344 kJ/mol
# Density = 1.495991 g / cm^3
# Si number density = 14.994036 Si / 1000 Ang^3
#
#
#
# Elastic Constant Matrix: (Units=GPa)
#
#
# Indices 1 2 3 4 5 6 
#
# 1 58.1125 48.9713 36.9793 0.0000 0.0000 0.0000
# 2 48.9713 58.1133 36.9790 0.0000 0.0000 0.0000
# 3 36.9793 36.9790 98.6372 0.0000 0.0000 0.0000
# 4 0.0000 0.0000 0.0000 18.7500 0.0000 0.0000
# 5 0.0000 0.0000 0.0000 0.0000 18.7500 0.0000
# 6 0.0000 0.0000 0.0000 0.0000 0.0000 31.7050
#
#
#
# Elastic Compliance Matrix: (Units=1/GPa)
#
#
# Indices 1 2 3 4 5 6 
#
# 1 0.060996 -0.048394 -0.004725 0.000000 0.000000 0.000000
# 2 -0.048394 0.060995 -0.004724 0.000000 0.000000 0.000000
# 3 -0.004725 -0.004724 0.013680 0.000000 0.000000 0.000000
# 4 0.000000 0.000000 0.000000 0.053333 0.000000 0.000000
# 5 0.000000 0.000000 0.000000 0.000000 0.053333 0.000000
# 6 0.000000 0.000000 0.000000 0.000000 0.000000 0.031541
#
#
# Mechanical properties :
#
#
# Convention : Reuss Voigt Hill
#
# Bulk Modulus (GPa) = 50.03497 51.19136 50.61316
# Shear Modulus (GPa) = 12.61904 19.96988 16.29446
#
# Velocity S-wave (km/s) = 2.90419 3.65342 3.30013
# Velocity P-wave (km/s) = 6.68492 7.21193 6.95342
#
# Compressibility (1/GPa) = 0.01998602
#
# Stress axis : x y z
#
# Youngs Moduli (GPa) = 16.39443 16.39481 73.09724
#
# Poissons Ratio (x) = 0.79342 0.34536
# Poissons Ratio (y) = 0.79340 0.34530
# Poissons Ratio (z) = 0.07746 0.07745
#
# Static dielectric constant tensor:
#      x y z
#    x 1.352420 0.000000 0.000000 
#    y 0.000000 1.352400 0.000000 
#    z 0.000000 0.000000 1.606750 
# 
# From -- ./inp_files/3559.got.cif
#   From: 2010.05.17/outbox.cif.g08.bks.cpg/sg98_2_cif.got.tgz:3559.got - 2010.06.03 20:00:51.
