data_PCOD9551207
_publ_section_title
;
Structure prediction by ZEFSAII (Michael W. Deem and Ramdas Pophale) SiO2 
 PCOD9551207
Probable space group: I 4 2 2 
;
_chemical_formula_sum "Si O2"
_cell_formula_units_Z 80
_cell_length_a 18.091662
_cell_length_b 18.091662
_cell_length_c 14.224697
_cell_angle_alpha 90.000000
_cell_angle_beta 90.000000
_cell_angle_gamma 90.000000
_cell_volume 4655.860453
_symmetry_space_group_name_H-M "I 4 2 2 "
_symmetry_group_IT_number 97
_symmetry_cell_setting 'tetragonal'
loop_
_space_group_symop_operation_xyz
x,y,z
-y,x,z
-x,-y,z
y,-x,z
x,-y,-z
-x,y,-z
y,x,-z
-y,-x,-z
1/2+x,1/2+y,1/2+z
1/2-y,1/2+x,1/2+z
1/2-x,1/2-y,1/2+z
1/2+y,1/2-x,1/2+z
1/2+x,1/2-y,1/2-z
1/2-x,1/2+y,1/2-z
1/2+y,1/2+x,1/2-z
1/2-y,1/2-x,1/2-z
loop_
_atom_site_type_symbol
_atom_site_label
_atom_site_fract_x
_atom_site_fract_y
_atom_site_fract_z
Si Si1 0.386315 0.238173 0.255287
Si Si2 0.861953 0.764451 0.247651
Si Si3 0.933223 0.542379 0.100265
Si Si4 0.787083 0.481627 0.602943
Si Si5 0.732401 0.985808 0.612154
O O1 0.331346 0.168655 0.250000
O O2 0.334848 0.309641 0.267030
O O3 0.443645 0.220518 0.337847
O O4 0.437866 0.250423 0.164298
O O5 0.806821 0.693180 0.250000
O O6 0.917878 0.753630 0.161089
O O7 0.914333 0.771784 0.340728
O O8 0.954715 0.627796 0.092416
O O9 0.852686 0.531592 0.141977
O O10 0.000000 0.500000 0.149349
O O11 0.926552 0.500000 0.000000
O O12 0.757743 0.500000 0.500000
O O13 0.739726 0.000000 0.500000
#
# Coordination Sequence:
#
# PCOD9551207 Si02
#       5
#    16  16  16  16  16
#     4  10  23  36  55  84 117 155 196 231 286 348
#     4  10  21  39  54  81 120 154 191 237 284 342
#     4  10  17  28  53  84 116 140 179 220 270 349
#     4  11  21  36  57  84 116 157 189 233 283 339
#     4  10  21  36  57  83 113 151 191 235 288 338
#
# _framework density 17.182645999999998
#
# number of rings (size 3 to 8) (size 9 to 14) (size 15 to 20)
#    0.000    1.800    4.000    1.200    2.800    1.600 
#    0.000    7.000    0.000    9.600    0.000   11.200 
#    0.000    0.000    0.000    0.000    0.000    0.000 
#
# Total GULP energy -222890.521487 kJ/mol
# GULP energy per Si atom -5572.263037 kJ/mol
# Density = 1.714354 g / cm^3
# Si number density = 17.182646 Si / 1000 Ang^3
#
#
#
# Elastic Constant Matrix: (Units=GPa)
#
#
# Indices 1 2 3 4 5 6 
#
# 1 111.0323 64.2178 48.1555 0.0000 0.0000 0.0000
# 2 64.2178 111.0327 48.1553 0.0000 0.0000 0.0000
# 3 48.1555 48.1553 125.4395 0.0000 0.0000 0.0000
# 4 0.0000 0.0000 0.0000 8.0458 0.0000 0.0000
# 5 0.0000 0.0000 0.0000 0.0000 8.0420 0.0000
# 6 0.0000 0.0000 0.0000 0.0000 0.0000 27.3910
#
#
#
# Elastic Compliance Matrix: (Units=1/GPa)
#
#
# Indices 1 2 3 4 5 6 
#
# 1 0.014296 -0.007064 -0.002776 0.000000 0.000000 0.000000
# 2 -0.007064 0.014296 -0.002776 0.000000 0.000000 0.000000
# 3 -0.002776 -0.002776 0.010104 0.000000 0.000000 0.000000
# 4 0.000000 0.000000 0.000000 0.124289 0.000000 0.000000
# 5 0.000000 0.000000 0.000000 0.000000 0.124347 0.000000
# 6 0.000000 0.000000 0.000000 0.000000 0.000000 0.036508
#
#
# Mechanical properties :
#
#
# Convention : Reuss Voigt Hill
#
# Bulk Modulus (GPa) = 74.28204 74.28465 74.28335
# Shear Modulus (GPa) = 14.14180 21.16080 17.65130
#
# Velocity S-wave (km/s) = 2.87196 3.51311 3.20859
# Velocity P-wave (km/s) = 7.37036 7.73189 7.55329
#
# Compressibility (1/GPa) = 0.01346220
#
# Stress axis : x y z
#
# Youngs Moduli (GPa) = 69.94775 69.94817 98.97514
#
# Poissons Ratio (x) = 0.49415 0.27478
# Poissons Ratio (y) = 0.49415 0.27478
# Poissons Ratio (z) = 0.19420 0.19419
#
# Static dielectric constant tensor:
#      x y z
#    x 1.628100 0.000000 0.000000 
#    y 0.000000 1.628090 0.000000 
#    z 0.000000 0.000000 1.635870 
# 
# From -- ./inp_files/4722.got.cif
#   From: 2010.05.17/outbox.cif.g08.bks.cpg/sg97_3_cif.got.tgz:4722.got - 2010.06.03 19:55:32.
