data_PCOD9551918
_publ_section_title
;
Structure prediction by ZEFSAII (Michael W. Deem and Ramdas Pophale) SiO2 
 PCOD9551918
Probable space group: I 41 2 2
;
_chemical_formula_sum "Si O2"
_cell_formula_units_Z 56
_cell_length_a 13.288693
_cell_length_b 13.288693
_cell_length_c 12.922359
_cell_angle_alpha 90.000000
_cell_angle_beta 90.000000
_cell_angle_gamma 90.000000
_cell_volume 2281.951127
_symmetry_space_group_name_H-M "I 41 2 2"
_symmetry_group_IT_number 98
_symmetry_cell_setting 'tetragonal'
loop_
_space_group_symop_operation_xyz
x,y,z
-y,1/2+x,1/4+z
-x,-y,z
y,1/2-x,1/4+z
x,1/2-y,1/4-z
-x,1/2+y,1/4-z
y,x,-z
-y,-x,-z
1/2+x,1/2+y,1/2+z
1/2-y,x,3/4+z
1/2-x,1/2-y,1/2+z
1/2+y,-x,3/4+z
1/2+x,-y,3/4-z
1/2-x,y,3/4-z
1/2+y,1/2+x,1/2-z
1/2-y,1/2-x,1/2-z
loop_
_atom_site_type_symbol
_atom_site_label
_atom_site_fract_x
_atom_site_fract_y
_atom_site_fract_z
Si Si1 0.113729 0.886272 0.000000
Si Si2 0.142352 0.071866 0.842635
Si Si3 0.421449 0.672487 0.843072
Si Si4 0.223865 0.005368 0.270366
O O1 0.215271 0.880991 0.067918
O O2 0.014156 0.883079 0.071964
O O3 0.250000 0.115552 0.875000
O O4 0.063228 0.157543 0.815446
O O5 0.153465 0.011594 0.736314
O O6 0.340835 0.588142 0.814497
O O7 0.465083 0.680587 0.957762
O O8 0.250000 0.066212 0.375000
#
# Coordination Sequence:
#
# PCOD9551918 Si02
#       4
#     8  16  16  16
#     4  10  22  43  76 110 146 191 258 330 372 463
#     4  10  24  48  77 108 144 204 260 316 379 463
#     4  11  24  43  74 111 152 191 253 320 388 451
#     4  12  27  45  72 112 158 202 249 317 391 461
#
# _framework density 24.540403999999999
#
# number of rings (size 3 to 8) (size 9 to 14) (size 15 to 20)
#    0.000    1.143    2.857    1.714    4.000    6.857 
#    0.000    7.143    0.000    0.000    0.000    0.000 
#    0.000    0.000    0.000    0.000    0.000    0.000 
#
# Total GULP energy -156774.062530 kJ/mol
# GULP energy per Si atom -5599.073662 kJ/mol
# Density = 2.448455 g / cm^3
# Si number density = 24.540404 Si / 1000 Ang^3
#
#
#
# Elastic Constant Matrix: (Units=GPa)
#
#
# Indices 1 2 3 4 5 6 
#
# 1 84.9590 53.9678 23.4627 0.0000 0.0000 0.0000
# 2 53.9678 84.9592 23.4624 0.0000 0.0000 0.0000
# 3 23.4627 23.4624 137.4343 0.0000 0.0000 0.0000
# 4 0.0000 0.0000 0.0000 30.5446 0.0000 0.0000
# 5 0.0000 0.0000 0.0000 0.0000 30.5445 0.0000
# 6 0.0000 0.0000 0.0000 0.0000 0.0000 -98.1182
#
#
#
# Elastic Compliance Matrix: (Units=1/GPa)
#
#
# Indices 1 2 3 4 5 6 
#
# 1 0.019953 -0.012314 -0.001304 0.000000 0.000000 0.000000
# 2 -0.012314 0.019953 -0.001304 0.000000 0.000000 0.000000
# 3 -0.001304 -0.001304 0.007721 0.000000 0.000000 0.000000
# 4 0.000000 0.000000 0.000000 0.032739 0.000000 0.000000
# 5 0.000000 0.000000 0.000000 0.000000 0.032739 0.000000
# 6 0.000000 0.000000 0.000000 0.000000 0.000000 -0.010192
#
#
# Mechanical properties :
#
#
# Convention : Reuss Voigt Hill
#
# Bulk Modulus (GPa) = 56.23568 56.57093 56.40331
# Shear Modulus (GPa) = 36.05279 6.35815 21.20547
#
# Velocity S-wave (km/s) = 3.83707 1.61137 2.94275
# Velocity P-wave (km/s) = 6.52657 5.15405 5.88049
#
# Compressibility (1/GPa) = 0.01778230
#
# Stress axis : x y z
#
# Youngs Moduli (GPa) = 50.11820 50.11840 129.50943
#
# Poissons Ratio (x) = 0.61717 0.16889
# Poissons Ratio (y) = 0.61717 0.16888
# Poissons Ratio (z) = 0.06536 0.06535
#
# Static dielectric constant tensor:
#      x y z
#    x 1.973710 0.000000 0.000000 
#    y 0.000000 1.973700 0.000000 
#    z 0.000000 0.000000 1.971800 
# 
# From -- ./inp_files/4673.got.cif
#   From: 2010.05.17/outbox.cif.g08.bks.cpg/sg98_3_cif.got.tgz:4673.got - 2010.06.03 20:00:51.
