data_PCOD9551787
_publ_section_title
;
Structure prediction by ZEFSAII (Michael W. Deem and Ramdas Pophale) SiO2 
 PCOD9551787
Probable space group: I 41 2 2
;
_chemical_formula_sum "Si O2"
_cell_formula_units_Z 72
_cell_length_a 14.543053
_cell_length_b 14.543053
_cell_length_c 16.716881
_cell_angle_alpha 90.000000
_cell_angle_beta 90.000000
_cell_angle_gamma 90.000000
_cell_volume 3535.626860
_symmetry_space_group_name_H-M "I 41 2 2"
_symmetry_group_IT_number 98
_symmetry_cell_setting 'tetragonal'
loop_
_space_group_symop_operation_xyz
x,y,z
-y,1/2+x,1/4+z
-x,-y,z
y,1/2-x,1/4+z
x,1/2-y,1/4-z
-x,1/2+y,1/4-z
y,x,-z
-y,-x,-z
1/2+x,1/2+y,1/2+z
1/2-y,x,3/4+z
1/2-x,1/2-y,1/2+z
1/2+y,-x,3/4+z
1/2+x,-y,3/4-z
1/2-x,y,3/4-z
1/2+y,1/2+x,1/2-z
1/2-y,1/2-x,1/2-z
loop_
_atom_site_type_symbol
_atom_site_label
_atom_site_fract_x
_atom_site_fract_y
_atom_site_fract_z
Si Si1 0.697738 0.572906 0.793859
Si Si2 0.256840 0.384629 0.281348
Si Si3 0.233454 0.882585 0.224904
Si Si4 0.000000 0.000000 0.349115
Si Si5 0.310851 0.938546 0.071854
O O1 0.750000 0.602054 0.875000
O O2 0.685152 0.657699 0.734175
O O3 0.750055 0.483797 0.761384
O O4 0.593523 0.535796 0.807011
O O5 0.250000 0.406450 0.375000
O O6 0.166439 0.333562 0.250000
O O7 0.276109 0.473608 0.226762
O O8 0.311991 0.811991 0.250000
O O9 0.235130 0.895891 0.129978
O O10 0.138368 0.844854 0.260108
O O11 0.035424 0.899693 0.378487
#
# Coordination Sequence:
#
# PCOD9551787 Si02
#       5
#    16  16  16   8  16
#     4  10  20  37  61  90 122 156 195 246 306 366
#     4  11  23  41  62  88 122 163 207 251 297 355
#     4  11  21  38  63  93 124 156 197 250 310 370
#     4   8  18  38  57  84 119 152 190 244 304 362
#     4  10  22  39  62  89 123 163 204 253 305 364
#
# _framework density 20.364141
#
# number of rings (size 3 to 8) (size 9 to 14) (size 15 to 20)
#    0.000    1.778    0.000    5.333    0.000    3.556 
#    0.000    6.111    0.000    4.667    0.000    0.000 
#    0.000    0.000    0.000    0.000    0.000    0.000 
#
# Total GULP energy -200540.447180 kJ/mol
# GULP energy per Si atom -5570.567977 kJ/mol
# Density = 2.031779 g / cm^3
# Si number density = 20.364141 Si / 1000 Ang^3
#
#
#
# Elastic Constant Matrix: (Units=GPa)
#
#
# Indices 1 2 3 4 5 6 
#
# 1 93.6938 48.9242 41.4774 0.0000 0.0000 0.0000
# 2 48.9242 93.6927 41.4778 0.0000 0.0000 0.0000
# 3 41.4774 41.4778 82.3359 0.0000 0.0000 0.0000
# 4 0.0000 0.0000 0.0000 46.2875 0.0000 0.0000
# 5 0.0000 0.0000 0.0000 0.0000 46.2858 0.0000
# 6 0.0000 0.0000 0.0000 0.0000 0.0000 18.5731
#
#
#
# Elastic Compliance Matrix: (Units=1/GPa)
#
#
# Indices 1 2 3 4 5 6 
#
# 1 0.016127 -0.006209 -0.004996 0.000000 0.000000 0.000000
# 2 -0.006209 0.016128 -0.004996 0.000000 0.000000 0.000000
# 3 -0.004996 -0.004996 0.017179 0.000000 0.000000 0.000000
# 4 0.000000 0.000000 0.000000 0.021604 0.000000 0.000000
# 5 0.000000 0.000000 0.000000 0.000000 0.021605 0.000000
# 6 0.000000 0.000000 0.000000 0.000000 0.000000 0.053841
#
#
# Mechanical properties :
#
#
# Convention : Reuss Voigt Hill
#
# Bulk Modulus (GPa) = 58.71990 59.27567 58.99779
# Shear Modulus (GPa) = 27.09074 31.41881 29.25478
#
# Velocity S-wave (km/s) = 3.65131 3.93217 3.79434
# Velocity P-wave (km/s) = 6.83181 7.05599 6.94481
#
# Compressibility (1/GPa) = 0.01703000
#
# Stress axis : x y z
#
# Youngs Moduli (GPa) = 62.00696 62.00574 58.20995
#
# Poissons Ratio (x) = 0.38502 0.29082
# Poissons Ratio (y) = 0.38503 0.29084
# Poissons Ratio (z) = 0.30979 0.30980
#
# Static dielectric constant tensor:
#      x y z
#    x 1.718560 0.000000 0.000000 
#    y 0.000000 1.718570 0.000000 
#    z 0.000000 0.000000 1.568670 
# 
# From -- ./inp_files/7481.got.cif
#   From: 2010.05.17/outbox.cif.g08.bks.cpg/sg98_4_cif.got.tgz:7481.got - 2010.06.03 20:00:51.
