data_PCOD9551505
_publ_section_title
;
Structure prediction by ZEFSAII (Michael W. Deem and Ramdas Pophale) SiO2 
 PCOD9551505
Probable space group: I 4 2 2 
;
_chemical_formula_sum "Si O2"
_cell_formula_units_Z 56
_cell_length_a 12.208971
_cell_length_b 12.208971
_cell_length_c 19.623133
_cell_angle_alpha 90.000000
_cell_angle_beta 90.000000
_cell_angle_gamma 90.000000
_cell_volume 2925.004050
_symmetry_space_group_name_H-M "I 4 2 2 "
_symmetry_group_IT_number 97
_symmetry_cell_setting 'tetragonal'
loop_
_space_group_symop_operation_xyz
x,y,z
-y,x,z
-x,-y,z
y,-x,z
x,-y,-z
-x,y,-z
y,x,-z
-y,-x,-z
1/2+x,1/2+y,1/2+z
1/2-y,1/2+x,1/2+z
1/2-x,1/2-y,1/2+z
1/2+y,1/2-x,1/2+z
1/2+x,1/2-y,1/2-z
1/2-x,1/2+y,1/2-z
1/2+y,1/2+x,1/2-z
1/2-y,1/2-x,1/2-z
loop_
_atom_site_type_symbol
_atom_site_label
_atom_site_fract_x
_atom_site_fract_y
_atom_site_fract_z
Si Si1 0.904403 0.719331 0.633226
Si Si2 0.867132 0.496302 0.579285
Si Si3 0.364865 0.793085 0.176606
Si Si4 0.000000 0.183328 0.500000
O O1 0.837597 0.608627 0.618445
O O2 0.822235 0.817462 0.649742
O O3 0.003150 0.705793 0.686330
O O4 0.975955 0.743930 0.565303
O O5 0.831080 0.500000 0.500000
O O6 0.835003 0.389478 0.622689
O O7 0.000000 0.500000 0.579020
O O8 0.313589 0.813589 0.250000
O O9 0.104223 0.104223 0.500000
#
# Coordination Sequence:
#
# PCOD9551505 Si02
#       4
#    16  16  16   8
#     4  11  22  39  64  91 128 163 209 269 324 389
#     4   9  20  37  60  90 122 159 209 261 315 388
#     4  11  25  39  61  92 125 173 215 262 330 395
#     4  11  20  34  61  98 130 155 204 273 336 376
#
# _framework density 19.145273
#
# number of rings (size 3 to 8) (size 9 to 14) (size 15 to 20)
#    0.000    1.571    2.857    3.429    4.000    4.571 
#    0.000    0.000    0.000    0.857    0.000    2.000 
#    0.000    0.000    0.000    0.000    0.000    0.000 
#
# Total GULP energy -156123.343062 kJ/mol
# GULP energy per Si atom -5575.833681 kJ/mol
# Density = 1.910170 g / cm^3
# Si number density = 19.145273 Si / 1000 Ang^3
#
#
#
# Elastic Constant Matrix: (Units=GPa)
#
#
# Indices 1 2 3 4 5 6 
#
# 1 77.5636 18.9548 23.1665 0.0000 0.0000 0.0000
# 2 18.9548 77.5636 23.1665 0.0000 0.0000 0.0000
# 3 23.1665 23.1665 94.0979 0.0000 0.0000 0.0000
# 4 0.0000 0.0000 0.0000 23.3870 0.0000 0.0000
# 5 0.0000 0.0000 0.0000 0.0000 23.3870 0.0000
# 6 0.0000 0.0000 0.0000 0.0000 0.0000 19.9650
#
#
#
# Elastic Compliance Matrix: (Units=1/GPa)
#
#
# Indices 1 2 3 4 5 6 
#
# 1 0.014406 -0.002656 -0.002893 0.000000 0.000000 0.000000
# 2 -0.002656 0.014406 -0.002893 0.000000 0.000000 0.000000
# 3 -0.002893 -0.002893 0.012052 0.000000 0.000000 0.000000
# 4 0.000000 0.000000 0.000000 0.042759 0.000000 0.000000
# 5 0.000000 0.000000 0.000000 0.000000 0.042759 0.000000
# 6 0.000000 0.000000 0.000000 0.000000 0.000000 0.050088
#
#
# Mechanical properties :
#
#
# Convention : Reuss Voigt Hill
#
# Bulk Modulus (GPa) = 41.70208 42.20010 41.95109
# Shear Modulus (GPa) = 24.83299 25.61029 25.22164
#
# Velocity S-wave (km/s) = 3.60541 3.66140 3.63351
# Velocity P-wave (km/s) = 6.25789 6.32174 6.28989
#
# Compressibility (1/GPa) = 0.02397962
#
# Stress axis : x y z
#
# Youngs Moduli (GPa) = 69.41651 69.41651 82.97699
#
# Poissons Ratio (x) = 0.18440 0.24002
# Poissons Ratio (y) = 0.18440 0.24002
# Poissons Ratio (z) = 0.20080 0.20080
#
# Static dielectric constant tensor:
#      x y z
#    x 1.702980 0.000000 0.000000 
#    y 0.000000 1.702980 0.000000 
#    z 0.000000 0.000000 1.719310 
# 
# From -- ./inp_files/6243.got.cif
#   From: 2010.05.17/outbox.cif.g08.bks.cpg/sg97_4_cif.got.tgz:6243.got - 2010.06.03 19:55:32.
