data_PCOD9551862
_publ_section_title
;
Structure prediction by ZEFSAII (Michael W. Deem and Ramdas Pophale) SiO2 
 PCOD9551862
Probable space group: I 41 2 2
;
_chemical_formula_sum "Si O2"
_cell_formula_units_Z 48
_cell_length_a 9.290891
_cell_length_b 9.290891
_cell_length_c 26.131821
_cell_angle_alpha 90.000000
_cell_angle_beta 90.000000
_cell_angle_gamma 90.000000
_cell_volume 2255.715920
_symmetry_space_group_name_H-M "I 41 2 2"
_symmetry_group_IT_number 98
_symmetry_cell_setting 'tetragonal'
loop_
_space_group_symop_operation_xyz
x,y,z
-y,1/2+x,1/4+z
-x,-y,z
y,1/2-x,1/4+z
x,1/2-y,1/4-z
-x,1/2+y,1/4-z
y,x,-z
-y,-x,-z
1/2+x,1/2+y,1/2+z
1/2-y,x,3/4+z
1/2-x,1/2-y,1/2+z
1/2+y,-x,3/4+z
1/2+x,-y,3/4-z
1/2-x,y,3/4-z
1/2+y,1/2+x,1/2-z
1/2-y,1/2-x,1/2-z
loop_
_atom_site_type_symbol
_atom_site_label
_atom_site_fract_x
_atom_site_fract_y
_atom_site_fract_z
Si Si1 0.156551 0.061146 0.219283
Si Si2 0.579719 0.154982 0.365682
Si Si3 0.203462 0.172266 0.677615
O O1 0.183176 0.078585 0.279873
O O2 0.170423 0.225275 0.198724
O O3 0.268848 0.965561 0.187521
O O4 0.000000 0.000000 0.210505
O O5 0.750000 0.156288 0.375000
O O6 0.491318 0.235184 0.411672
O O7 0.500000 0.000000 0.366012
O O8 0.163386 0.250000 0.625000
#
# Coordination Sequence:
#
# PCOD9551862 Si02
#       3
#    16  16  16
#     4  10  21  40  67  96 130 172 217 270 336 397
#     4  11  23  42  67  95 130 172 223 278 336 401
#     4   9  20  42  65  91 132 170 215 275 328 396
#
# _framework density 21.279274000000001
#
# number of rings (size 3 to 8) (size 9 to 14) (size 15 to 20)
#    0.000    2.000    0.000    4.000    0.000    6.667 
#    0.000   48.333    0.000   12.000    0.000    0.000 
#    0.000    0.000    0.000    0.000    0.000    0.000 
#
# Total GULP energy -133800.433455 kJ/mol
# GULP energy per Si atom -5575.018061 kJ/mol
# Density = 2.123084 g / cm^3
# Si number density = 21.279274 Si / 1000 Ang^3
#
#
#
# Elastic Constant Matrix: (Units=GPa)
#
#
# Indices 1 2 3 4 5 6 
#
# 1 143.4577 62.8027 52.4534 0.0000 0.0000 0.0000
# 2 62.8027 143.4577 52.4534 0.0000 0.0000 0.0000
# 3 52.4534 52.4534 156.6578 0.0000 0.0000 0.0000
# 4 0.0000 0.0000 0.0000 15.8443 0.0000 0.0000
# 5 0.0000 0.0000 0.0000 0.0000 15.8443 0.0000
# 6 0.0000 0.0000 0.0000 0.0000 0.0000 29.1581
#
#
#
# Elastic Compliance Matrix: (Units=1/GPa)
#
#
# Indices 1 2 3 4 5 6 
#
# 1 0.009121 -0.003278 -0.001957 0.000000 0.000000 0.000000
# 2 -0.003278 0.009121 -0.001957 0.000000 0.000000 0.000000
# 3 -0.001957 -0.001957 0.007694 0.000000 0.000000 0.000000
# 4 0.000000 0.000000 0.000000 0.063114 0.000000 0.000000
# 5 0.000000 0.000000 0.000000 0.000000 0.063114 0.000000
# 6 0.000000 0.000000 0.000000 0.000000 0.000000 0.034296
#
#
# Mechanical properties :
#
#
# Convention : Reuss Voigt Hill
#
# Bulk Modulus (GPa) = 86.54884 86.55467 86.55175
# Shear Modulus (GPa) = 24.42698 30.56029 27.49363
#
# Velocity S-wave (km/s) = 3.39178 3.79377 3.59839
# Velocity P-wave (km/s) = 7.48999 7.74301 7.61755
#
# Compressibility (1/GPa) = 0.01155417
#
# Stress axis : x y z
#
# Youngs Moduli (GPa) = 109.63813 109.63813 129.97937
#
# Poissons Ratio (x) = 0.35935 0.25431
# Poissons Ratio (y) = 0.35935 0.25431
# Poissons Ratio (z) = 0.21451 0.21451
#
# Static dielectric constant tensor:
#      x y z
#    x 1.829420 0.000000 0.000000 
#    y 0.000000 1.829420 0.000000 
#    z 0.000000 0.000000 1.827660 
# 
# From -- ./inp_files/11312.got.cif
#   From: 2010.05.17/outbox.cif.g08.bks.cpg/sg98_6_cif.got.tgz:11312.got - 2010.06.03 20:00:51.
