data_PCOD9551189
_publ_section_title
;
Structure prediction by ZEFSAII (Michael W. Deem and Ramdas Pophale) SiO2 
 PCOD9551189
Probable space group: P 43 21 2
;
_chemical_formula_sum "Si O2"
_cell_formula_units_Z 24
_cell_length_a 8.398650
_cell_length_b 8.398650
_cell_length_c 11.801642
_cell_angle_alpha 90.000000
_cell_angle_beta 90.000000
_cell_angle_gamma 90.000000
_cell_volume 832.456220
_symmetry_space_group_name_H-M "P 43 21 2"
_symmetry_group_IT_number 96
_symmetry_cell_setting 'tetragonal'
loop_
_space_group_symop_operation_xyz
x,y,z
1/2-y,1/2+x,3/4+z
-x,-y,1/2+z
1/2+y,1/2-x,1/4+z
1/2+x,1/2-y,1/4-z
1/2-x,1/2+y,3/4-z
y,x,-z
-y,-x,1/2-z
loop_
_atom_site_type_symbol
_atom_site_label
_atom_site_fract_x
_atom_site_fract_y
_atom_site_fract_z
Si Si1 0.825776 0.009397 0.604042
Si Si2 0.187807 0.529384 0.285832
Si Si3 0.278573 0.525425 0.031232
O O1 0.657837 0.091990 0.640026
O O2 0.928917 0.171626 0.595221
O O3 0.898371 0.898371 0.500000
O O4 0.862137 0.890793 0.707141
O O5 0.268406 0.568453 0.163919
O O6 0.055011 0.400498 0.245270
O O7 0.353499 0.353499 0.000000
#
# Coordination Sequence:
#
# PCOD9551189 Si02
#       3
#     8   8   8
#     4  12  30  63  98 151 211 280 365 442 547 652
#     4  12  32  56 101 146 204 277 354 460 535 643
#     4  12  30  60  93 144 201 272 343 441 540 649
#
# _framework density 28.830342000000002
#
# number of rings (size 3 to 8) (size 9 to 14) (size 15 to 20)
#    0.000    0.000    3.333    2.000    9.333    6.667 
#    6.000    0.000    0.000    0.000    0.000    0.000 
#    0.000    0.000    0.000    0.000    0.000    0.000 
#
# Total GULP energy -133996.706929 kJ/mol
# GULP energy per Si atom -5583.196122 kJ/mol
# Density = 2.876472 g / cm^3
# Si number density = 28.830342 Si / 1000 Ang^3
#
#
#
# Elastic Constant Matrix: (Units=GPa)
#
#
# Indices 1 2 3 4 5 6 
#
# 1 218.9211 169.5825 102.7928 0.0000 0.0000 0.0000
# 2 169.5825 218.9211 102.7928 0.0000 0.0000 0.0000
# 3 102.7928 102.7928 256.4694 0.0000 0.0000 0.0000
# 4 0.0000 0.0000 0.0000 48.1308 0.0000 0.0000
# 5 0.0000 0.0000 0.0000 0.0000 48.1308 0.0000
# 6 0.0000 0.0000 0.0000 0.0000 0.0000 86.0708
#
#
#
# Elastic Compliance Matrix: (Units=1/GPa)
#
#
# Indices 1 2 3 4 5 6 
#
# 1 0.011767 -0.008501 -0.001309 0.000000 0.000000 0.000000
# 2 -0.008501 0.011767 -0.001309 0.000000 0.000000 0.000000
# 3 -0.001309 -0.001309 0.004949 0.000000 0.000000 0.000000
# 4 0.000000 0.000000 0.000000 0.020777 0.000000 0.000000
# 5 0.000000 0.000000 0.000000 0.000000 0.020777 0.000000
# 6 0.000000 0.000000 0.000000 0.000000 0.000000 0.011618
#
#
# Mechanical properties :
#
#
# Convention : Reuss Voigt Hill
#
# Bulk Modulus (GPa) = 160.12887 160.51644 160.32265
# Shear Modulus (GPa) = 47.18064 57.74273 52.46169
#
# Velocity S-wave (km/s) = 4.04975 4.48017 4.27039
# Velocity P-wave (km/s) = 8.80509 9.08624 8.94677
#
# Compressibility (1/GPa) = 0.00624497
#
# Stress axis : x y z
#
# Youngs Moduli (GPa) = 84.98006 84.98006 202.07418
#
# Poissons Ratio (x) = 0.72238 0.26459
# Poissons Ratio (y) = 0.72238 0.26459
# Poissons Ratio (z) = 0.11127 0.11127
#
# Static dielectric constant tensor:
#      x y z
#    x 2.397210 0.000000 0.000000 
#    y 0.000000 2.397210 0.000000 
#    z 0.000000 0.000000 2.347590 
# 
# From -- ./inp_files/2450.got.cif
#   From: 2010.05.17/outbox.cif.g08.bks.cpg/sg96_2_cif.got.tgz:2450.got - 2010.06.03 19:52:08.
