data_PCOD9551572
_publ_section_title
;
Structure prediction by ZEFSAII (Michael W. Deem and Ramdas Pophale) SiO2 
 PCOD9551572
Probable space group: I 4 2 2 
;
_chemical_formula_sum "Si O2"
_cell_formula_units_Z 96
_cell_length_a 14.279562
_cell_length_b 14.279562
_cell_length_c 23.583536
_cell_angle_alpha 90.000000
_cell_angle_beta 90.000000
_cell_angle_gamma 90.000000
_cell_volume 4808.821919
_symmetry_space_group_name_H-M "I 4 2 2 "
_symmetry_group_IT_number 97
_symmetry_cell_setting 'tetragonal'
loop_
_space_group_symop_operation_xyz
x,y,z
-y,x,z
-x,-y,z
y,-x,z
x,-y,-z
-x,y,-z
y,x,-z
-y,-x,-z
1/2+x,1/2+y,1/2+z
1/2-y,1/2+x,1/2+z
1/2-x,1/2-y,1/2+z
1/2+y,1/2-x,1/2+z
1/2+x,1/2-y,1/2-z
1/2-x,1/2+y,1/2-z
1/2+y,1/2+x,1/2-z
1/2-y,1/2-x,1/2-z
loop_
_atom_site_type_symbol
_atom_site_label
_atom_site_fract_x
_atom_site_fract_y
_atom_site_fract_z
Si Si1 0.328757 0.272087 0.397464
Si Si2 0.179162 0.603759 0.190230
Si Si3 0.480508 0.656489 0.745630
Si Si4 0.530782 0.248559 0.371556
Si Si5 0.228572 0.500000 0.000000
Si Si6 0.593344 0.960639 0.604024
Si Si7 0.296674 0.703327 0.000000
O O1 0.305582 0.197511 0.347292
O O2 0.438732 0.253782 0.411682
O O3 0.316356 0.381557 0.383060
O O4 0.254682 0.251853 0.446829
O O5 0.134406 0.634406 0.250000
O O6 0.273334 0.546265 0.204102
O O7 0.115483 0.531919 0.155091
O O8 0.399572 0.578037 0.746793
O O9 0.488373 0.719052 0.688784
O O10 0.573870 0.144347 0.374406
O O11 0.170640 0.471943 0.055992
O O12 0.283446 0.594254 0.011479
O O13 0.500000 0.000000 0.575833
#
# Coordination Sequence:
#
# PCOD9551572 Si02
#       7
#    16  16  16  16   8  16   8
#     4  12  26  45  72 105 143 189 247 302 371 440
#     4  12  24  44  66 106 146 181 245 302 366 441
#     4  11  24  42  66  96 139 194 238 291 362 442
#     4  12  23  44  71 101 143 194 238 305 367 442
#     4  12  25  47  74 104 146 186 244 300 370 436
#     4  12  24  42  72 104 139 190 239 304 369 434
#     4  12  26  49  76 107 146 190 244 304 368 442
#
# _framework density 19.963311000000001
#
# number of rings (size 3 to 8) (size 9 to 14) (size 15 to 20)
#    0.000    0.167    8.333    0.250    2.333    3.500 
#    0.000    0.000    0.000    1.000    0.000    0.000 
#    0.000    0.000    0.000    0.000    0.000    0.000 
#
# Total GULP energy -267849.546262 kJ/mol
# GULP energy per Si atom -5580.198880 kJ/mol
# Density = 1.991787 g / cm^3
# Si number density = 19.963311 Si / 1000 Ang^3
#
#
#
# Elastic Constant Matrix: (Units=GPa)
#
#
# Indices 1 2 3 4 5 6 
#
# 1 121.0091 35.1845 28.8739 0.0000 0.0000 0.0000
# 2 35.1845 121.0093 28.8744 0.0000 0.0000 0.0000
# 3 28.8739 28.8744 60.9315 0.0000 0.0000 0.0000
# 4 0.0000 0.0000 0.0000 28.5611 0.0000 0.0000
# 5 0.0000 0.0000 0.0000 0.0000 28.5620 0.0000
# 6 0.0000 0.0000 0.0000 0.0000 0.0000 31.0755
#
#
#
# Elastic Compliance Matrix: (Units=1/GPa)
#
#
# Indices 1 2 3 4 5 6 
#
# 1 0.009707 -0.001945 -0.003678 0.000000 0.000000 0.000000
# 2 -0.001945 0.009707 -0.003678 0.000000 0.000000 0.000000
# 3 -0.003678 -0.003678 0.019898 0.000000 0.000000 0.000000
# 4 0.000000 0.000000 0.000000 0.035013 0.000000 0.000000
# 5 0.000000 0.000000 0.000000 0.000000 0.035012 0.000000
# 6 0.000000 0.000000 0.000000 0.000000 0.000000 0.032180
#
#
# Mechanical properties :
#
#
# Convention : Reuss Voigt Hill
#
# Bulk Modulus (GPa) = 48.28786 54.31280 51.30033
# Shear Modulus (GPa) = 29.93619 31.64086 30.78853
#
# Velocity S-wave (km/s) = 3.87662 3.98546 3.93142
# Velocity P-wave (km/s) = 6.65420 6.96017 6.80890
#
# Compressibility (1/GPa) = 0.02070914
#
# Stress axis : x y z
#
# Youngs Moduli (GPa) = 103.01886 103.01860 50.25608
#
# Poissons Ratio (x) = 0.20034 0.18486
# Poissons Ratio (y) = 0.20034 0.18486
# Poissons Ratio (z) = 0.37894 0.37895
#
# Static dielectric constant tensor:
#      x y z
#    x 1.726420 0.000000 0.000000 
#    y 0.000000 1.726420 0.000000 
#    z 0.000000 0.000000 1.705410 
# 
# From -- ./inp_files/6665.got.cif
#   From: 2010.05.17/outbox.cif.g08.bks.cpg/sg97_4_cif.got.tgz:6665.got - 2010.06.03 19:55:32.
