data_PCOD9551973
_publ_section_title
;
Structure prediction by ZEFSAII (Michael W. Deem and Ramdas Pophale) SiO2 
 PCOD9551973
Probable space group: I 41 2 2
;
_chemical_formula_sum "Si O2"
_cell_formula_units_Z 48
_cell_length_a 8.276800
_cell_length_b 8.276800
_cell_length_c 29.774255
_cell_angle_alpha 90.000000
_cell_angle_beta 90.000000
_cell_angle_gamma 90.000000
_cell_volume 2039.697792
_symmetry_space_group_name_H-M "I 41 2 2"
_symmetry_group_IT_number 98
_symmetry_cell_setting 'tetragonal'
loop_
_space_group_symop_operation_xyz
x,y,z
-y,1/2+x,1/4+z
-x,-y,z
y,1/2-x,1/4+z
x,1/2-y,1/4-z
-x,1/2+y,1/4-z
y,x,-z
-y,-x,-z
1/2+x,1/2+y,1/2+z
1/2-y,x,3/4+z
1/2-x,1/2-y,1/2+z
1/2+y,-x,3/4+z
1/2+x,-y,3/4-z
1/2-x,y,3/4-z
1/2+y,1/2+x,1/2-z
1/2-y,1/2-x,1/2-z
loop_
_atom_site_type_symbol
_atom_site_label
_atom_site_fract_x
_atom_site_fract_y
_atom_site_fract_z
Si Si1 0.301045 0.204806 0.325318
Si Si2 0.967175 0.165463 0.951798
Si Si3 0.148668 0.666507 0.804057
O O1 0.250000 0.253112 0.375000
O O2 0.483055 0.264120 0.314145
O O3 0.139704 0.244013 0.296085
O O4 0.335354 0.013964 0.322883
O O5 0.817537 0.256787 0.930537
O O6 0.891562 0.108439 0.000000
O O7 0.000000 0.000000 0.926255
O O8 0.147778 0.647778 0.750000
#
# Coordination Sequence:
#
# PCOD9551973 Si02
#       3
#    16  16  16
#     4  11  24  42  70 103 138 180 234 296 357 417
#     4  10  24  43  67  99 136 182 230 286 353 424
#     4  10  24  43  72 100 133 182 239 287 344 434
#
# _framework density 23.532897999999999
#
# number of rings (size 3 to 8) (size 9 to 14) (size 15 to 20)
#    0.000    1.667    0.000    3.000   18.667    1.333 
#    6.000    0.000    0.000    0.000    0.000    0.000 
#    0.000    0.000    0.000    0.000    0.000    0.000 
#
# Total GULP energy -133656.910335 kJ/mol
# GULP energy per Si atom -5569.037931 kJ/mol
# Density = 2.347934 g / cm^3
# Si number density = 23.532898 Si / 1000 Ang^3
#
#
#
# Elastic Constant Matrix: (Units=GPa)
#
#
# Indices 1 2 3 4 5 6 
#
# 1 140.0856 98.1024 11.0781 0.0000 0.0000 0.0000
# 2 98.1024 140.0863 11.0792 0.0000 0.0000 0.0000
# 3 11.0781 11.0792 79.2026 0.0000 0.0000 0.0000
# 4 0.0000 0.0000 0.0000 18.0048 0.0000 0.0000
# 5 0.0000 0.0000 0.0000 0.0000 18.0049 0.0000
# 6 0.0000 0.0000 0.0000 0.0000 0.0000 40.7031
#
#
#
# Elastic Compliance Matrix: (Units=1/GPa)
#
#
# Indices 1 2 3 4 5 6 
#
# 1 0.014036 -0.009783 -0.000595 0.000000 0.000000 0.000000
# 2 -0.009783 0.014036 -0.000595 0.000000 0.000000 0.000000
# 3 -0.000595 -0.000595 0.012792 0.000000 0.000000 0.000000
# 4 0.000000 0.000000 0.000000 0.055541 0.000000 0.000000
# 5 0.000000 0.000000 0.000000 0.000000 0.055540 0.000000
# 6 0.000000 0.000000 0.000000 0.000000 0.000000 0.024568
#
#
# Mechanical properties :
#
#
# Convention : Reuss Voigt Hill
#
# Bulk Modulus (GPa) = 52.85491 66.65489 59.75490
# Shear Modulus (GPa) = 24.41814 31.28355 27.85084
#
# Velocity S-wave (km/s) = 3.22470 3.64999 3.44391
# Velocity P-wave (km/s) = 6.03106 6.79329 6.42349
#
# Compressibility (1/GPa) = 0.01891972
#
# Stress axis : x y z
#
# Youngs Moduli (GPa) = 71.24384 71.24406 78.17206
#
# Poissons Ratio (x) = 0.69695 0.04650
# Poissons Ratio (y) = 0.69695 0.04652
# Poissons Ratio (z) = 0.04238 0.04240
#
# Static dielectric constant tensor:
#      x y z
#    x 2.040560 0.000000 0.000000 
#    y 0.000000 2.040550 0.000000 
#    z 0.000000 0.000000 2.037810 
# 
# From -- ./inp_files/11430.got.cif
#   From: 2010.05.17/outbox.cif.g08.bks.cpg/sg98_6_cif.got.tgz:11430.got - 2010.06.03 20:00:51.
