data_PCOD9551353
_publ_section_title
;
Structure prediction by ZEFSAII (Michael W. Deem and Ramdas Pophale) SiO2 
 PCOD9551353
Probable space group: I 4 2 2 
;
_chemical_formula_sum "Si O2"
_cell_formula_units_Z 52
_cell_length_a 17.789705
_cell_length_b 17.789705
_cell_length_c 7.946074
_cell_angle_alpha 90.000000
_cell_angle_beta 90.000000
_cell_angle_gamma 90.000000
_cell_volume 2514.722676
_symmetry_space_group_name_H-M "I 4 2 2 "
_symmetry_group_IT_number 97
_symmetry_cell_setting 'tetragonal'
loop_
_space_group_symop_operation_xyz
x,y,z
-y,x,z
-x,-y,z
y,-x,z
x,-y,-z
-x,y,-z
y,x,-z
-y,-x,-z
1/2+x,1/2+y,1/2+z
1/2-y,1/2+x,1/2+z
1/2-x,1/2-y,1/2+z
1/2+y,1/2-x,1/2+z
1/2+x,1/2-y,1/2-z
1/2-x,1/2+y,1/2-z
1/2+y,1/2+x,1/2-z
1/2-y,1/2-x,1/2-z
loop_
_atom_site_type_symbol
_atom_site_label
_atom_site_fract_x
_atom_site_fract_y
_atom_site_fract_z
Si Si1 0.418909 0.295565 0.050096
Si Si2 0.000000 0.500000 0.000000
Si Si3 0.247293 0.849710 0.875476
Si Si4 0.377678 0.894342 0.444980
O O1 0.410411 0.286062 0.249675
O O2 0.500000 0.326510 0.000000
O O3 0.349670 0.349670 0.000000
O O4 0.413046 0.210856 0.971042
O O5 0.935689 0.441321 0.059440
O O6 0.288711 0.788711 0.750000
O O7 0.190259 0.809742 0.000000
O O8 0.309898 0.884749 0.993922
O O9 0.401543 0.901543 0.250000
#
# Coordination Sequence:
#
# PCOD9551353 Si02
#       4
#    16   4  16  16
#     4  11  24  43  66  93 128 169 230 277 335 394
#     4  12  26  36  60 102 148 172 208 252 334 408
#     4  10  20  39  65  94 127 173 224 269 326 397
#     4  11  23  39  64  94 136 177 214 264 328 407
#
# _framework density 20.678224
#
# number of rings (size 3 to 8) (size 9 to 14) (size 15 to 20)
#    0.000    1.231    1.538    6.923    4.308    2.769 
#    0.000    0.000    0.000    0.000    0.000    6.462 
#    0.000    0.000    0.000    0.000    0.000    0.000 
#
# Total GULP energy -144854.052433 kJ/mol
# GULP energy per Si atom -5571.309709 kJ/mol
# Density = 2.063116 g / cm^3
# Si number density = 20.678224 Si / 1000 Ang^3
#
#
#
# Elastic Constant Matrix: (Units=GPa)
#
#
# Indices 1 2 3 4 5 6 
#
# 1 105.9511 63.0340 27.7763 0.0000 0.0000 0.0000
# 2 63.0340 105.9512 27.7744 0.0000 0.0000 0.0000
# 3 27.7763 27.7744 136.4608 0.0000 0.0000 0.0000
# 4 0.0000 0.0000 0.0000 -1.3716 0.0000 0.0000
# 5 0.0000 0.0000 0.0000 0.0000 -1.3725 0.0000
# 6 0.0000 0.0000 0.0000 0.0000 0.0000 31.6221
#
#
#
# Elastic Compliance Matrix: (Units=1/GPa)
#
#
# Indices 1 2 3 4 5 6 
#
# 1 0.014821 -0.008479 -0.001291 0.000000 0.000000 0.000000
# 2 -0.008479 0.014821 -0.001291 0.000000 0.000000 0.000000
# 3 -0.001291 -0.001291 0.007854 0.000000 0.000000 0.000000
# 4 0.000000 0.000000 0.000000 -0.729071 0.000000 0.000000
# 5 0.000000 0.000000 0.000000 0.000000 -0.728622 0.000000
# 6 0.000000 0.000000 0.000000 0.000000 0.000000 0.031623
#
#
# Mechanical properties :
#
#
# Convention : Reuss Voigt Hill
#
# Bulk Modulus (GPa) = 65.04401 65.05916 65.05159
# Shear Modulus (GPa) = -3.67289 21.09417 8.71064
#
# Velocity S-wave (km/s) = -1.33419 3.19739 2.05466
# Velocity P-wave (km/s) = 5.39909 6.72027 6.09558
#
# Compressibility (1/GPa) = 0.01537420
#
# Stress axis : x y z
#
# Youngs Moduli (GPa) = 67.46985 67.47043 127.33023
#
# Poissons Ratio (x) = 0.57211 0.16439
# Poissons Ratio (y) = 0.57210 0.16434
# Poissons Ratio (z) = 0.08711 0.08708
#
# Static dielectric constant tensor:
#      x y z
#    x 1.778000 0.000000 0.000000 
#    y 0.000000 1.777980 0.000000 
#    z 0.000000 0.000000 1.916810 
# 
# From -- ./inp_files/1734.got.cif
#   From: 2010.05.17/outbox.cif.g08.bks.cpg/sg97_1_cif.got.tgz:1734.got - 2010.06.03 19:55:32.
