data_PCOD9551366
_publ_section_title
;
Structure prediction by ZEFSAII (Michael W. Deem and Ramdas Pophale) SiO2 
 PCOD9551366
Probable space group: I 4 2 2 
;
_chemical_formula_sum "Si O2"
_cell_formula_units_Z 44
_cell_length_a 11.413687
_cell_length_b 11.413687
_cell_length_c 17.535551
_cell_angle_alpha 90.000000
_cell_angle_beta 90.000000
_cell_angle_gamma 90.000000
_cell_volume 2284.395700
_symmetry_space_group_name_H-M "I 4 2 2 "
_symmetry_group_IT_number 97
_symmetry_cell_setting 'tetragonal'
loop_
_space_group_symop_operation_xyz
x,y,z
-y,x,z
-x,-y,z
y,-x,z
x,-y,-z
-x,y,-z
y,x,-z
-y,-x,-z
1/2+x,1/2+y,1/2+z
1/2-y,1/2+x,1/2+z
1/2-x,1/2-y,1/2+z
1/2+y,1/2-x,1/2+z
1/2+x,1/2-y,1/2-z
1/2-x,1/2+y,1/2-z
1/2+y,1/2+x,1/2-z
1/2-y,1/2-x,1/2-z
loop_
_atom_site_type_symbol
_atom_site_label
_atom_site_fract_x
_atom_site_fract_y
_atom_site_fract_z
Si Si1 0.413227 0.792491 0.155999
Si Si2 0.907353 0.832197 0.190427
Si Si3 0.500000 0.696142 0.000000
Si Si4 0.000000 0.500000 0.250000
O O1 0.282772 0.849733 0.152081
O O2 0.399844 0.687749 0.217525
O O3 0.494409 0.885758 0.198998
O O4 0.476542 0.766252 0.077174
O O5 0.045006 0.845589 0.171058
O O6 0.387701 0.612300 0.000000
#
# Coordination Sequence:
#
# PCOD9551366 Si02
#       4
#    16  16   8   4
#     4  10  21  35  57  85 117 151 189 237 288 340
#     4   9  18  34  58  85 112 149 196 239 280 334
#     4  11  24  39  56  84 118 151 186 231 294 354
#     4   8  20  38  56  84 112 148 200 238 276 334
#
# _framework density 19.261112000000001
#
# number of rings (size 3 to 8) (size 9 to 14) (size 15 to 20)
#    0.000    2.727    0.000    2.182    0.000   21.091 
#    0.000    0.000    0.000    0.000    0.000    7.636 
#    0.000    0.000    0.000    0.000    0.000    0.000 
#
# Total GULP energy -122626.818522 kJ/mol
# GULP energy per Si atom -5573.946296 kJ/mol
# Density = 1.921727 g / cm^3
# Si number density = 19.261112 Si / 1000 Ang^3
#
#
#
# Elastic Constant Matrix: (Units=GPa)
#
#
# Indices 1 2 3 4 5 6 
#
# 1 90.1963 67.3968 48.1828 0.0000 0.0000 0.0000
# 2 67.3968 90.1961 48.1831 0.0000 0.0000 0.0000
# 3 48.1828 48.1831 142.4786 0.0000 0.0000 0.0000
# 4 0.0000 0.0000 0.0000 19.9265 0.0000 0.0000
# 5 0.0000 0.0000 0.0000 0.0000 19.9276 0.0000
# 6 0.0000 0.0000 0.0000 0.0000 0.0000 58.4458
#
#
#
# Elastic Compliance Matrix: (Units=1/GPa)
#
#
# Indices 1 2 3 4 5 6 
#
# 1 0.025930 -0.017931 -0.002705 0.000000 0.000000 0.000000
# 2 -0.017931 0.025930 -0.002705 0.000000 0.000000 0.000000
# 3 -0.002705 -0.002705 0.008848 0.000000 0.000000 0.000000
# 4 0.000000 0.000000 0.000000 0.050184 0.000000 0.000000
# 5 0.000000 0.000000 0.000000 0.000000 0.050182 0.000000
# 6 0.000000 0.000000 0.000000 0.000000 0.000000 0.017110
#
#
# Mechanical properties :
#
#
# Convention : Reuss Voigt Hill
#
# Bulk Modulus (GPa) = 71.29353 72.26626 71.77989
# Shear Modulus (GPa) = 21.78245 30.26720 26.02483
#
# Velocity S-wave (km/s) = 3.36654 3.96841 3.67980
# Velocity P-wave (km/s) = 7.22537 7.65496 7.44327
#
# Compressibility (1/GPa) = 0.01402652
#
# Stress axis : x y z
#
# Youngs Moduli (GPa) = 38.56513 38.56492 113.01540
#
# Poissons Ratio (x) = 0.69149 0.30574
# Poissons Ratio (y) = 0.69149 0.30575
# Poissons Ratio (z) = 0.10433 0.10433
#
# Static dielectric constant tensor:
#      x y z
#    x 1.718560 0.000000 0.000000 
#    y 0.000000 1.718560 0.000000 
#    z 0.000000 0.000000 1.580610 
# 
# From -- ./inp_files/5332.got.cif
#   From: 2010.05.17/outbox.cif.g08.bks.cpg/sg97_3_cif.got.tgz:5332.got - 2010.06.03 19:55:32.
