data_PCOD9551236
_publ_section_title
;
Structure prediction by ZEFSAII (Michael W. Deem and Ramdas Pophale) SiO2 
 PCOD9551236
Probable space group: I 4 2 2 
;
_chemical_formula_sum "Si O2"
_cell_formula_units_Z 96
_cell_length_a 20.535566
_cell_length_b 20.535566
_cell_length_c 12.089324
_cell_angle_alpha 90.000000
_cell_angle_beta 90.000000
_cell_angle_gamma 90.000000
_cell_volume 5098.182428
_symmetry_space_group_name_H-M "I 4 2 2 "
_symmetry_group_IT_number 97
_symmetry_cell_setting 'tetragonal'
loop_
_space_group_symop_operation_xyz
x,y,z
-y,x,z
-x,-y,z
y,-x,z
x,-y,-z
-x,y,-z
y,x,-z
-y,-x,-z
1/2+x,1/2+y,1/2+z
1/2-y,1/2+x,1/2+z
1/2-x,1/2-y,1/2+z
1/2+y,1/2-x,1/2+z
1/2+x,1/2-y,1/2-z
1/2-x,1/2+y,1/2-z
1/2+y,1/2+x,1/2-z
1/2-y,1/2-x,1/2-z
loop_
_atom_site_type_symbol
_atom_site_label
_atom_site_fract_x
_atom_site_fract_y
_atom_site_fract_z
Si Si1 0.000000 0.285429 0.500000
Si Si2 0.506581 0.247017 0.241619
Si Si3 0.621621 0.746433 0.386976
Si Si4 0.982084 0.396782 0.827516
Si Si5 0.576150 0.423851 0.500000
Si Si6 0.392550 0.109459 0.458344
Si Si7 0.811740 0.876212 0.866403
O O1 0.999226 0.243086 0.611086
O O2 0.061811 0.333746 0.513403
O O3 0.444042 0.266025 0.316296
O O4 0.509230 0.169360 0.259553
O O5 0.573455 0.278794 0.284364
O O6 0.631104 0.823979 0.399495
O O7 0.679853 0.700584 0.340788
O O8 0.614489 0.723701 0.514976
O O9 0.948134 0.448134 0.750000
O O10 0.051008 0.418925 0.878585
O O11 0.933348 0.378678 0.928912
O O12 0.588722 0.500000 0.500000
O O13 0.602598 0.385773 0.393430
#
# Coordination Sequence:
#
# PCOD9551236 Si02
#       7
#     8  16  16  16   8  16  16
#     4  12  26  39  58  80 126 169 214 252 290 368
#     4  11  21  38  58  86 122 168 199 244 310 365
#     4   9  19  35  64  88 119 151 199 260 315 360
#     4  10  19  36  59  83 120 155 199 261 313 350
#     4   9  16  26  50  96 126 130 164 240 308 366
#     4  10  21  38  56  89 116 153 205 259 313 358
#     4  10  18  34  63  92 114 158 192 249 317 365
#
# _framework density 18.83024
#
# number of rings (size 3 to 8) (size 9 to 14) (size 15 to 20)
#    0.000    2.083    3.333    2.500    0.000    4.000 
#    3.000    0.833   18.333    0.000    0.000    0.000 
#    0.000    2.667    0.000    0.000    0.000    0.000 
#
# Total GULP energy -267680.472779 kJ/mol
# GULP energy per Si atom -5576.676516 kJ/mol
# Density = 1.878738 g / cm^3
# Si number density = 18.830240 Si / 1000 Ang^3
#
#
#
# Elastic Constant Matrix: (Units=GPa)
#
#
# Indices 1 2 3 4 5 6 
#
# 1 92.8147 14.8591 22.4479 0.0000 0.0000 0.0000
# 2 14.8591 92.8152 22.4486 0.0000 0.0000 0.0000
# 3 22.4479 22.4486 85.4066 0.0000 0.0000 0.0000
# 4 0.0000 0.0000 0.0000 19.5135 0.0000 0.0000
# 5 0.0000 0.0000 0.0000 0.0000 19.5135 0.0000
# 6 0.0000 0.0000 0.0000 0.0000 0.0000 35.2190
#
#
#
# Elastic Compliance Matrix: (Units=1/GPa)
#
#
# Indices 1 2 3 4 5 6 
#
# 1 0.011629 -0.001199 -0.002741 0.000000 0.000000 0.000000
# 2 -0.001199 0.011629 -0.002742 0.000000 0.000000 0.000000
# 3 -0.002741 -0.002742 0.013150 0.000000 0.000000 0.000000
# 4 0.000000 0.000000 0.000000 0.051247 0.000000 0.000000
# 5 0.000000 0.000000 0.000000 0.000000 0.051246 0.000000
# 6 0.000000 0.000000 0.000000 0.000000 0.000000 0.028394
#
#
# Mechanical properties :
#
#
# Convention : Reuss Voigt Hill
#
# Bulk Modulus (GPa) = 43.39414 43.39418 43.39416
# Shear Modulus (GPa) = 26.54773 28.93458 27.74115
#
# Velocity S-wave (km/s) = 3.75886 3.92420 3.84242
# Velocity P-wave (km/s) = 6.47562 6.60511 6.54069
#
# Compressibility (1/GPa) = 0.02304458
#
# Stress axis : x y z
#
# Youngs Moduli (GPa) = 85.99114 85.99130 76.04640
#
# Poissons Ratio (x) = 0.10308 0.20848
# Poissons Ratio (y) = 0.10308 0.20849
# Poissons Ratio (z) = 0.23574 0.23575
#
# Static dielectric constant tensor:
#      x y z
#    x 1.698270 0.000000 0.000000 
#    y 0.000000 1.698260 0.000000 
#    z 0.000000 0.000000 1.679980 
# 
# From -- ./inp_files/3901.got.cif
#   From: 2010.05.17/outbox.cif.g08.bks.cpg/sg97_2_cif.got.tgz:3901.got - 2010.06.03 19:55:32.
