data_PCOD9551394
_publ_section_title
;
Structure prediction by ZEFSAII (Michael W. Deem and Ramdas Pophale) SiO2 
 PCOD9551394
Probable space group: I 4 2 2 
;
_chemical_formula_sum "Si O2"
_cell_formula_units_Z 80
_cell_length_a 14.304331
_cell_length_b 14.304331
_cell_length_c 19.930676
_cell_angle_alpha 90.000000
_cell_angle_beta 90.000000
_cell_angle_gamma 90.000000
_cell_volume 4078.093054
_symmetry_space_group_name_H-M "I 4 2 2 "
_symmetry_group_IT_number 97
_symmetry_cell_setting 'tetragonal'
loop_
_space_group_symop_operation_xyz
x,y,z
-y,x,z
-x,-y,z
y,-x,z
x,-y,-z
-x,y,-z
y,x,-z
-y,-x,-z
1/2+x,1/2+y,1/2+z
1/2-y,1/2+x,1/2+z
1/2-x,1/2-y,1/2+z
1/2+y,1/2-x,1/2+z
1/2+x,1/2-y,1/2-z
1/2-x,1/2+y,1/2-z
1/2+y,1/2+x,1/2-z
1/2-y,1/2-x,1/2-z
loop_
_atom_site_type_symbol
_atom_site_label
_atom_site_fract_x
_atom_site_fract_y
_atom_site_fract_z
Si Si1 0.744261 0.571911 0.937469
Si Si2 0.174020 0.394864 0.323255
Si Si3 0.372206 0.408844 0.271743
Si Si4 0.206473 0.890109 0.373470
Si Si5 0.037037 0.393306 0.927305
O O1 0.702804 0.500410 0.882895
O O2 0.672342 0.656772 0.929370
O O3 0.850367 0.604983 0.926393
O O4 0.744978 0.500000 0.000000
O O5 0.123636 0.376365 0.250000
O O6 0.284806 0.377160 0.316699
O O7 0.133512 0.315355 0.371262
O O8 0.155175 0.492018 0.361611
O O9 0.478260 0.375093 0.280315
O O10 0.339010 0.374249 0.198725
O O11 0.000000 0.500000 0.924112
O O12 0.000000 0.356163 0.000000
#
# Coordination Sequence:
#
# PCOD9551394 Si02
#       5
#    16  16  16  16  16
#     4  12  23  38  62  90 122 171 207 258 315 390
#     4  10  23  40  62  97 122 163 223 273 319 397
#     4  10  21  40  60  83 124 166 200 265 335 379
#     4  11  22  39  58  89 127 157 214 259 320 381
#     4  11  21  42  64  85 130 167 207 265 330 378
#
# _framework density 19.617013
#
# number of rings (size 3 to 8) (size 9 to 14) (size 15 to 20)
#    0.000    1.200    6.000    0.600    2.800    0.800 
#    0.000    1.000    0.000    0.000    0.000    1.400 
#    0.000    0.000    0.000    0.000    0.000    0.000 
#
# Total GULP energy -222745.081799 kJ/mol
# GULP energy per Si atom -5568.627045 kJ/mol
# Density = 1.957236 g / cm^3
# Si number density = 19.617013 Si / 1000 Ang^3
#
#
#
# Elastic Constant Matrix: (Units=GPa)
#
#
# Indices 1 2 3 4 5 6 
#
# 1 63.4503 7.7230 19.8480 0.0000 0.0000 0.0000
# 2 7.7230 63.4500 19.8482 0.0000 0.0000 0.0000
# 3 19.8480 19.8482 58.9111 0.0000 0.0000 0.0000
# 4 0.0000 0.0000 0.0000 13.1370 0.0000 0.0000
# 5 0.0000 0.0000 0.0000 0.0000 13.1370 0.0000
# 6 0.0000 0.0000 0.0000 0.0000 0.0000 6.8599
#
#
#
# Elastic Compliance Matrix: (Units=1/GPa)
#
#
# Indices 1 2 3 4 5 6 
#
# 1 0.017623 -0.000322 -0.005829 0.000000 0.000000 0.000000
# 2 -0.000322 0.017623 -0.005829 0.000000 0.000000 0.000000
# 3 -0.005829 -0.005829 0.020903 0.000000 0.000000 0.000000
# 4 0.000000 0.000000 0.000000 0.076121 0.000000 0.000000
# 5 0.000000 0.000000 0.000000 0.000000 0.076121 0.000000
# 6 0.000000 0.000000 0.000000 0.000000 0.000000 0.145775
#
#
# Mechanical properties :
#
#
# Convention : Reuss Voigt Hill
#
# Bulk Modulus (GPa) = 31.06664 31.18332 31.12498
# Shear Modulus (GPa) = 12.85829 15.85292 14.35560
#
# Velocity S-wave (km/s) = 2.56298 2.84583 2.70810
# Velocity P-wave (km/s) = 4.96281 5.17000 5.06746
#
# Compressibility (1/GPa) = 0.03218887
#
# Stress axis : x y z
#
# Youngs Moduli (GPa) = 56.74433 56.74386 47.84099
#
# Poissons Ratio (x) = 0.01825 0.27887
# Poissons Ratio (y) = 0.01825 0.27887
# Poissons Ratio (z) = 0.33077 0.33077
#
# Static dielectric constant tensor:
#      x y z
#    x 1.587400 0.000000 0.000000 
#    y 0.000000 1.587390 0.000000 
#    z 0.000000 0.000000 1.783790 
# 
# From -- ./inp_files/6403.got.cif
#   From: 2010.05.17/outbox.cif.g08.bks.cpg/sg97_4_cif.got.tgz:6403.got - 2010.06.03 19:55:32.
