data_PCOD9551701
_publ_section_title
;
Structure prediction by ZEFSAII (Michael W. Deem and Ramdas Pophale) SiO2 
 PCOD9551701
Probable space group: I 41 2 2
;
_chemical_formula_sum "Si O2"
_cell_formula_units_Z 96
_cell_length_a 19.124177
_cell_length_b 19.124177
_cell_length_c 16.577955
_cell_angle_alpha 90.000000
_cell_angle_beta 90.000000
_cell_angle_gamma 90.000000
_cell_volume 6063.124213
_symmetry_space_group_name_H-M "I 41 2 2"
_symmetry_group_IT_number 98
_symmetry_cell_setting 'tetragonal'
loop_
_space_group_symop_operation_xyz
x,y,z
-y,1/2+x,1/4+z
-x,-y,z
y,1/2-x,1/4+z
x,1/2-y,1/4-z
-x,1/2+y,1/4-z
y,x,-z
-y,-x,-z
1/2+x,1/2+y,1/2+z
1/2-y,x,3/4+z
1/2-x,1/2-y,1/2+z
1/2+y,-x,3/4+z
1/2+x,-y,3/4-z
1/2-x,y,3/4-z
1/2+y,1/2+x,1/2-z
1/2-y,1/2-x,1/2-z
loop_
_atom_site_type_symbol
_atom_site_label
_atom_site_fract_x
_atom_site_fract_y
_atom_site_fract_z
Si Si1 0.423367 0.172989 0.101071
Si Si2 0.028716 0.325734 0.081384
Si Si3 0.996091 0.116464 0.503799
Si Si4 0.153428 0.062638 0.162711
Si Si5 0.562651 0.057141 0.657234
Si Si6 0.806196 0.944108 0.644746
O O1 0.400473 0.250000 0.125000
O O2 0.485998 0.153198 0.161767
O O3 0.358413 0.121242 0.112832
O O4 0.443766 0.166426 0.008095
O O5 0.031550 0.250000 0.125000
O O6 0.097222 0.374529 0.099853
O O7 0.964436 0.374301 0.110919
O O8 0.026240 0.315347 0.984834
O O9 0.922539 0.077462 0.500000
O O10 0.006149 0.167970 0.428061
O O11 0.055396 0.055396 0.500000
O O12 0.226551 0.077705 0.119629
O O13 0.124665 0.988493 0.130587
O O14 0.576124 0.076124 0.750000
O O15 0.500000 0.000000 0.655937
#
# Coordination Sequence:
#
# PCOD9551701 Si02
#       6
#    16  16  16  16  16  16
#     4  10  19  32  49  73 105 135 167 201 247 303
#     4  10  21  34  50  74 101 132 172 213 251 299
#     4   9  18  31  49  71  99 132 167 208 245 288
#     4  10  20  33  51  74 102 136 169 206 252 304
#     4   9  18  33  52  71  96 128 167 214 254 292
#     4  10  20  32  49  74 103 133 168 205 249 300
#
# _framework density 15.833422000000001
#
# number of rings (size 3 to 8) (size 9 to 14) (size 15 to 20)
#    0.000    2.333    1.667    1.000    2.333    2.667 
#    0.000    3.333    0.000    0.000    0.000    4.667 
#    0.000    0.000    0.000    0.000    0.000    0.000 
#
# Total GULP energy -267342.262063 kJ/mol
# GULP energy per Si atom -5569.630460 kJ/mol
# Density = 1.579738 g / cm^3
# Si number density = 15.833422 Si / 1000 Ang^3
#
#
#
# Elastic Constant Matrix: (Units=GPa)
#
#
# Indices 1 2 3 4 5 6 
#
# 1 54.8000 48.4398 52.2228 0.0000 0.0000 0.0000
# 2 48.4398 54.8012 52.2233 0.0000 0.0000 0.0000
# 3 52.2228 52.2233 110.8915 0.0000 0.0000 0.0000
# 4 0.0000 0.0000 0.0000 11.2729 0.0000 0.0000
# 5 0.0000 0.0000 0.0000 0.0000 11.2682 0.0000
# 6 0.0000 0.0000 0.0000 0.0000 0.0000 8.6804
#
#
#
# Elastic Compliance Matrix: (Units=1/GPa)
#
#
# Indices 1 2 3 4 5 6 
#
# 1 0.087858 -0.069356 -0.008713 0.000000 0.000000 0.000000
# 2 -0.069356 0.087855 -0.008712 0.000000 0.000000 0.000000
# 3 -0.008713 -0.008712 0.017224 0.000000 0.000000 0.000000
# 4 0.000000 0.000000 0.000000 0.088708 0.000000 0.000000
# 5 0.000000 0.000000 0.000000 0.000000 0.088745 0.000000
# 6 0.000000 0.000000 0.000000 0.000000 0.000000 0.115202
#
#
# Mechanical properties :
#
#
# Convention : Reuss Voigt Hill
#
# Bulk Modulus (GPa) = 51.61394 58.47383 55.04388
# Shear Modulus (GPa) = 7.51187 10.75142 9.13165
#
# Velocity S-wave (km/s) = 2.18051 2.60865 2.40413
# Velocity P-wave (km/s) = 6.24567 6.78854 6.52275
#
# Compressibility (1/GPa) = 0.01937461
#
# Stress axis : x y z
#
# Youngs Moduli (GPa) = 11.38206 11.38236 58.05857
#
# Poissons Ratio (x) = 0.78943 0.50585
# Poissons Ratio (y) = 0.78941 0.50583
# Poissons Ratio (z) = 0.09917 0.09917
#
# Static dielectric constant tensor:
#      x y z
#    x 1.526850 0.000000 0.000000 
#    y 0.000000 1.526860 0.000000 
#    z 0.000000 0.000000 1.544080 
# 
# From -- ./inp_files/7674.got.cif
#   From: 2010.05.17/outbox.cif.g08.bks.cpg/sg98_4_cif.got.tgz:7674.got - 2010.06.03 20:00:51.
