data_PCOD9551348
_publ_section_title
;
Structure prediction by ZEFSAII (Michael W. Deem and Ramdas Pophale) SiO2 
 PCOD9551348
Probable space group: I 4 2 2 
;
_chemical_formula_sum "Si O2"
_cell_formula_units_Z 60
_cell_length_a 11.333215
_cell_length_b 11.333215
_cell_length_c 20.877384
_cell_angle_alpha 90.000000
_cell_angle_beta 90.000000
_cell_angle_gamma 90.000000
_cell_volume 2681.527992
_symmetry_space_group_name_H-M "I 4 2 2 "
_symmetry_group_IT_number 97
_symmetry_cell_setting 'tetragonal'
loop_
_space_group_symop_operation_xyz
x,y,z
-y,x,z
-x,-y,z
y,-x,z
x,-y,-z
-x,y,-z
y,x,-z
-y,-x,-z
1/2+x,1/2+y,1/2+z
1/2-y,1/2+x,1/2+z
1/2-x,1/2-y,1/2+z
1/2+y,1/2-x,1/2+z
1/2+x,1/2-y,1/2-z
1/2-x,1/2+y,1/2-z
1/2+y,1/2+x,1/2-z
1/2-y,1/2-x,1/2-z
loop_
_atom_site_type_symbol
_atom_site_label
_atom_site_fract_x
_atom_site_fract_y
_atom_site_fract_z
Si Si1 0.000000 0.000000 0.196030
Si Si2 0.200621 0.254822 0.072253
Si Si3 0.077580 0.819042 0.652010
Si Si4 0.765474 0.535756 0.652458
Si Si5 0.108098 0.391903 0.250000
O O1 0.968088 0.141553 0.189877
O O2 0.259483 0.381407 0.085569
O O3 0.066543 0.257477 0.098121
O O4 0.269533 0.160620 0.117160
O O5 0.212516 0.212516 0.000000
O O6 0.110687 0.722694 0.704716
O O7 0.941816 0.853546 0.658259
O O8 0.869621 0.500450 0.701037
#
# Coordination Sequence:
#
# PCOD9551348 Si02
#       5
#     4  16  16  16   8
#     4   8  16  28  57  84 120 156 205 252 300 358
#     4  10  20  38  62  91 126 164 210 259 313 370
#     4  10  24  41  62  89 120 163 208 256 309 359
#     4   9  19  34  57  94 122 163 203 257 321 366
#     4  10  22  36  61  91 128 162 200 254 318 383
#
# _framework density 22.375302999999999
#
# number of rings (size 3 to 8) (size 9 to 14) (size 15 to 20)
#    0.000    2.400    0.000    0.800   11.200    1.067 
#    0.000   12.000    0.000    6.400    0.000    0.000 
#    0.000    0.000    0.000    0.000    0.000    0.000 
#
# Total GULP energy -167123.936480 kJ/mol
# GULP energy per Si atom -5570.797883 kJ/mol
# Density = 2.232438 g / cm^3
# Si number density = 22.375303 Si / 1000 Ang^3
#
#
#
# Elastic Constant Matrix: (Units=GPa)
#
#
# Indices 1 2 3 4 5 6 
#
# 1 53.7631 34.3963 11.6666 0.0000 0.0000 0.0000
# 2 34.3963 53.7616 11.6666 0.0000 0.0000 0.0000
# 3 11.6666 11.6666 91.8190 0.0000 0.0000 0.0000
# 4 0.0000 0.0000 0.0000 23.3679 0.0000 0.0000
# 5 0.0000 0.0000 0.0000 0.0000 23.3680 0.0000
# 6 0.0000 0.0000 0.0000 0.0000 0.0000 42.3973
#
#
#
# Elastic Compliance Matrix: (Units=1/GPa)
#
#
# Indices 1 2 3 4 5 6 
#
# 1 0.031687 -0.019949 -0.001491 0.000000 0.000000 0.000000
# 2 -0.019949 0.031688 -0.001491 0.000000 0.000000 0.000000
# 3 -0.001491 -0.001491 0.011270 0.000000 0.000000 0.000000
# 4 0.000000 0.000000 0.000000 0.042794 0.000000 0.000000
# 5 0.000000 0.000000 0.000000 0.000000 0.042794 0.000000
# 6 0.000000 0.000000 0.000000 0.000000 0.000000 0.023586
#
#
# Mechanical properties :
#
#
# Convention : Reuss Voigt Hill
#
# Bulk Modulus (GPa) = 34.74621 34.97809 34.86215
# Shear Modulus (GPa) = 20.89633 27.26759 24.08196
#
# Velocity S-wave (km/s) = 3.05930 3.49470 3.28422
# Velocity P-wave (km/s) = 5.29543 5.65246 5.47685
#
# Compressibility (1/GPa) = 0.02878012
#
# Stress axis : x y z
#
# Youngs Moduli (GPa) = 31.55872 31.55785 88.73117
#
# Poissons Ratio (x) = 0.62956 0.13233
# Poissons Ratio (y) = 0.62958 0.13234
# Poissons Ratio (z) = 0.04707 0.04707
#
# Static dielectric constant tensor:
#      x y z
#    x 1.823820 0.000000 0.000000 
#    y 0.000000 1.823820 0.000000 
#    z 0.000000 0.000000 1.848940 
# 
# From -- ./inp_files/6341.got.cif
#   From: 2010.05.17/outbox.cif.g08.bks.cpg/sg97_4_cif.got.tgz:6341.got - 2010.06.03 19:55:32.
