data_PCOD9551557
_publ_section_title
;
Structure prediction by ZEFSAII (Michael W. Deem and Ramdas Pophale) SiO2 
 PCOD9551557
Probable space group: I 4 2 2 
;
_chemical_formula_sum "Si O2"
_cell_formula_units_Z 112
_cell_length_a 14.876700
_cell_length_b 14.876700
_cell_length_c 25.274113
_cell_angle_alpha 90.000000
_cell_angle_beta 90.000000
_cell_angle_gamma 90.000000
_cell_volume 5593.570721
_symmetry_space_group_name_H-M "I 4 2 2 "
_symmetry_group_IT_number 97
_symmetry_cell_setting 'tetragonal'
loop_
_space_group_symop_operation_xyz
x,y,z
-y,x,z
-x,-y,z
y,-x,z
x,-y,-z
-x,y,-z
y,x,-z
-y,-x,-z
1/2+x,1/2+y,1/2+z
1/2-y,1/2+x,1/2+z
1/2-x,1/2-y,1/2+z
1/2+y,1/2-x,1/2+z
1/2+x,1/2-y,1/2-z
1/2-x,1/2+y,1/2-z
1/2+y,1/2+x,1/2-z
1/2-y,1/2-x,1/2-z
loop_
_atom_site_type_symbol
_atom_site_label
_atom_site_fract_x
_atom_site_fract_y
_atom_site_fract_z
Si Si1 0.915956 0.438590 0.123892
Si Si2 0.510235 0.248896 0.937612
Si Si3 0.706680 0.673527 0.442051
Si Si4 0.813276 0.829031 0.614632
Si Si5 0.768855 0.612419 0.788568
Si Si6 0.151094 0.007853 0.211809
Si Si7 0.019810 0.760367 0.096682
O O1 0.855791 0.483924 0.078240
O O2 0.847182 0.421880 0.172221
O O3 0.949587 0.342068 0.104045
O O4 0.000000 0.500000 0.138646
O O5 0.602686 0.294414 0.919645
O O6 0.429530 0.290912 0.903133
O O7 0.500000 0.260723 0.000000
O O8 0.716541 0.716541 0.500000
O O9 0.766628 0.729023 0.400813
O O10 0.602457 0.685013 0.427791
O O11 0.732858 0.569797 0.437903
O O12 0.841637 0.807277 0.674617
O O13 0.814674 0.685327 0.750000
O O14 0.725880 0.530852 0.755522
O O15 0.197861 0.003676 0.154670
O O16 0.081556 0.091437 0.216498
#
# Coordination Sequence:
#
# PCOD9551557 Si02
#       7
#    16  16  16  16  16  16  16
#     4  11  25  45  65 100 138 176 233 282 334 418
#     4  11  23  44  70  99 137 182 227 283 348 403
#     4  12  24  43  69 101 140 181 223 278 344 408
#     4  11  25  43  68 100 139 177 232 287 338 413
#     4  11  23  45  66  94 135 174 227 280 342 404
#     4  11  24  43  69  93 130 175 221 275 346 404
#     4  12  23  45  68 100 137 178 224 282 337 413
#
# _framework density 20.022988000000002
#
# number of rings (size 3 to 8) (size 9 to 14) (size 15 to 20)
#    0.000    0.714    5.714    2.571    4.000    1.143 
#    2.571    1.429    0.000    0.000    0.000    0.000 
#    0.000    0.000    0.000    0.000    0.000    0.000 
#
# Total GULP energy -313128.422445 kJ/mol
# GULP energy per Si atom -5591.578972 kJ/mol
# Density = 1.997741 g / cm^3
# Si number density = 20.022988 Si / 1000 Ang^3
#
#
#
# Elastic Constant Matrix: (Units=GPa)
#
#
# Indices 1 2 3 4 5 6 
#
# 1 52.1970 34.5395 -6.0778 0.0000 0.0000 0.0000
# 2 34.5395 52.1972 -6.0774 0.0000 0.0000 0.0000
# 3 -6.0778 -6.0774 61.1610 0.0000 0.0000 0.0000
# 4 0.0000 0.0000 0.0000 16.4642 0.0000 0.0000
# 5 0.0000 0.0000 0.0000 0.0000 16.4639 0.0000
# 6 0.0000 0.0000 0.0000 0.0000 0.0000 32.5704
#
#
#
# Elastic Compliance Matrix: (Units=1/GPa)
#
#
# Indices 1 2 3 4 5 6 
#
# 1 0.034163 -0.022470 0.001162 0.000000 0.000000 0.000000
# 2 -0.022470 0.034162 0.001162 0.000000 0.000000 0.000000
# 3 0.001162 0.001162 0.016581 0.000000 0.000000 0.000000
# 4 0.000000 0.000000 0.000000 0.060738 0.000000 0.000000
# 5 0.000000 0.000000 0.000000 0.000000 0.060739 0.000000
# 6 0.000000 0.000000 0.000000 0.000000 0.000000 0.030703
#
#
# Mechanical properties :
#
#
# Convention : Reuss Voigt Hill
#
# Bulk Modulus (GPa) = 22.41522 23.36929 22.89225
# Shear Modulus (GPa) = 17.10864 22.64443 19.87654
#
# Velocity S-wave (km/s) = 2.92627 3.36657 3.15411
# Velocity P-wave (km/s) = 4.75778 5.17767 4.97216
#
# Compressibility (1/GPa) = 0.04461255
#
# Stress axis : x y z
#
# Youngs Moduli (GPa) = 29.27180 29.27197 60.30926
#
# Poissons Ratio (x) = 0.65776 -0.07008
# Poissons Ratio (y) = 0.65775 -0.07006
# Poissons Ratio (z) = -0.03401 -0.03400
#
# Static dielectric constant tensor:
#      x y z
#    x 1.692240 0.000000 0.000000 
#    y 0.000000 1.692240 0.000000 
#    z 0.000000 0.000000 1.761240 
# 
# From -- ./inp_files/7705.got.cif
#   From: 2010.05.17/outbox.cif.g08.bks.cpg/sg97_4_cif.got.tgz:7705.got - 2010.06.03 19:55:32.
