data_PCOD9551567
_publ_section_title
;
Structure prediction by ZEFSAII (Michael W. Deem and Ramdas Pophale) SiO2 
 PCOD9551567
Probable space group: I 4 2 2 
;
_chemical_formula_sum "Si O2"
_cell_formula_units_Z 48
_cell_length_a 9.048218
_cell_length_b 9.048218
_cell_length_c 29.244111
_cell_angle_alpha 90.000000
_cell_angle_beta 90.000000
_cell_angle_gamma 90.000000
_cell_volume 2394.222649
_symmetry_space_group_name_H-M "I 4 2 2 "
_symmetry_group_IT_number 97
_symmetry_cell_setting 'tetragonal'
loop_
_space_group_symop_operation_xyz
x,y,z
-y,x,z
-x,-y,z
y,-x,z
x,-y,-z
-x,y,-z
y,x,-z
-y,-x,-z
1/2+x,1/2+y,1/2+z
1/2-y,1/2+x,1/2+z
1/2-x,1/2-y,1/2+z
1/2+y,1/2-x,1/2+z
1/2+x,1/2-y,1/2-z
1/2-x,1/2+y,1/2-z
1/2+y,1/2+x,1/2-z
1/2-y,1/2-x,1/2-z
loop_
_atom_site_type_symbol
_atom_site_label
_atom_site_fract_x
_atom_site_fract_y
_atom_site_fract_z
Si Si1 0.779984 0.123873 0.792843
Si Si2 0.862024 0.658844 0.522537
Si Si3 0.111937 0.225629 0.623773
O O1 0.688110 0.188110 0.750000
O O2 0.685181 0.176167 0.836590
O O3 0.946072 0.194773 0.792209
O O4 0.869041 0.500000 0.500000
O O5 0.717309 0.717309 0.500000
O O6 0.864232 0.687898 0.576120
O O7 0.000000 0.744821 0.500000
O O8 0.935907 0.191168 0.626423
#
# Coordination Sequence:
#
# PCOD9551567 Si02
#       3
#    16  16  16
#     4  11  26  46  70 102 138 175 222 278 337 402
#     4  11  24  41  64  96 134 179 228 273 333 394
#     4  11  24  42  69 100 135 178 227 280 335 398
#
# _framework density 20.048262000000001
#
# number of rings (size 3 to 8) (size 9 to 14) (size 15 to 20)
#    0.000    1.000    3.333    2.000    4.667    8.000 
#    0.000    0.000    0.000    0.000    0.000    0.000 
#    0.000    0.000    0.000    0.000    0.000    0.000 
#
# Total GULP energy -133728.243027 kJ/mol
# GULP energy per Si atom -5572.010126 kJ/mol
# Density = 2.000263 g / cm^3
# Si number density = 20.048262 Si / 1000 Ang^3
#
#
#
# Elastic Constant Matrix: (Units=GPa)
#
#
# Indices 1 2 3 4 5 6 
#
# 1 150.8414 -16.2714 59.1984 -0.0014 -0.0021 0.0000
# 2 -16.2714 150.8414 59.1984 0.0020 0.0006 0.0000
# 3 59.1984 59.1984 221.1578 0.0003 -0.0006 0.0000
# 4 -0.0014 0.0020 0.0003 3438.8654 -0.0352 0.0001
# 5 -0.0021 0.0006 -0.0006 -0.0352 3438.7750 -0.0002
# 6 0.0000 0.0000 0.0000 0.0001 -0.0002 34.8909
#
#
#
# Elastic Compliance Matrix: (Units=1/GPa)
#
#
# Indices 1 2 3 4 5 6 
#
# 1 0.007852 0.001868 -0.002602 0.000000 0.000000 0.000000
# 2 0.001868 0.007852 -0.002602 0.000000 0.000000 0.000000
# 3 -0.002602 -0.002602 0.005915 0.000000 0.000000 0.000000
# 4 0.000000 0.000000 0.000000 0.000291 0.000000 0.000000
# 5 0.000000 0.000000 0.000000 0.000000 0.000291 0.000000
# 6 0.000000 0.000000 0.000000 0.000000 0.000000 0.028661
#
#
# Mechanical properties :
#
#
# Convention : Reuss Voigt Hill
#
# Bulk Modulus (GPa) = 66.90046 80.78794 73.84420
# Shear Modulus (GPa) = 79.98095 1410.55394 745.26745
#
# Velocity S-wave (km/s) = 6.32304 26.55384 19.30139
# Velocity P-wave (km/s) = 9.31396 31.31336 23.10061
#
# Compressibility (1/GPa) = 0.01494758
#
# Stress axis : x y z
#
# Youngs Moduli (GPa) = 127.35435 127.35436 169.07419
#
# Poissons Ratio (x) = -0.23791 0.43991
# Poissons Ratio (y) = -0.23791 0.43991
# Poissons Ratio (z) = 0.33136 0.33136
#
# Static dielectric constant tensor:
#      x y z
#    x 1.568780 0.000000 0.000000 
#    y 0.000000 1.568780 0.000000 
#    z 0.000000 0.000000 1.676440 
# 
# From -- ./inp_files/7772.got.cif
#   From: 2010.05.17/outbox.cif.g08.bks.cpg/sg97_4_cif.got.tgz:7772.got - 2010.06.03 19:55:32.
