data_PCOD9552116
_publ_section_title
;
Structure prediction by ZEFSAII (Michael W. Deem and Ramdas Pophale) SiO2 
 PCOD9552116
Probable space group: P 4 M M
;
_chemical_formula_sum "Si O2"
_cell_formula_units_Z 64
_cell_length_a 17.544029
_cell_length_b 17.544029
_cell_length_c 12.575806
_cell_angle_alpha 90.000000
_cell_angle_beta 90.000000
_cell_angle_gamma 90.000000
_cell_volume 3870.744472
_symmetry_space_group_name_H-M "P 4 M M"
_symmetry_group_IT_number 99
_symmetry_cell_setting 'tetragonal'
loop_
_space_group_symop_operation_xyz
x,y,z
-y,x,z
-x,-y,z
y,-x,z
-x,y,z
x,-y,z
-y,-x,z
y,x,z
loop_
_atom_site_type_symbol
_atom_site_label
_atom_site_fract_x
_atom_site_fract_y
_atom_site_fract_z
Si Si1 0.789496 0.913482 0.318470
Si Si2 0.710131 0.162085 0.900873
Si Si3 0.298289 0.168126 0.491711
Si Si4 0.411726 0.773996 0.183193
Si Si5 0.091148 0.220556 0.688676
Si Si6 0.691951 0.085713 0.122356
Si Si7 0.590052 0.285794 0.418810
Si Si8 0.590042 0.286310 0.947045
O O1 0.861134 0.861134 0.342259
O O2 0.719353 0.881047 0.387014
O O3 0.767300 0.909372 0.194817
O O4 0.803811 0.000000 0.348804
O O5 0.775145 0.224856 0.925128
O O6 0.736018 0.118327 0.795424
O O7 0.705225 0.105197 0.999806
O O8 0.632616 0.212649 0.895830
O O9 0.236884 0.236884 0.491496
O O10 0.275669 0.116617 0.591832
O O11 0.378077 0.212232 0.482833
O O12 0.500000 0.795598 0.188546
O O13 0.362528 0.849099 0.166853
O O14 0.394054 0.732250 0.293763
O O15 0.401943 0.725297 0.075145
O O16 0.143074 0.143074 0.680702
O O17 0.000000 0.206607 0.687770
O O18 0.661825 0.000000 0.135030
O O19 0.500000 0.296699 0.432861
O O20 0.640229 0.359772 0.447866
O O21 0.500000 0.290246 0.922499
O O22 0.638781 0.361220 0.916985
#
# Coordination Sequence:
#
# PCOD9552116 Si02
#       8
#     8   8   8   8   8   8   8   8
#     4  10  19  30  46  68  94 126 163 203 246 294
#     4   9  18  32  50  71  97 133 174 209 249 305
#     4   9  18  33  52  72  97 130 167 200 239 296
#     4   9  17  29  45  68 100 135 168 204 250 303
#     4  10  20  35  56  79 103 131 166 210 254 299
#     4  10  18  28  46  70  97 130 169 211 249 293
#     4  10  19  32  52  76 103 134 167 205 249 297
#     4   9  17  29  47  72 101 133 170 212 256 303
#
# _framework density 16.534286000000002
#
# number of rings (size 3 to 8) (size 9 to 14) (size 15 to 20)
#    0.000    2.500    1.250    1.500    0.000    1.750 
#    0.000    0.625    0.000    7.875    0.000    1.750 
#    0.000    5.000    0.000    0.000    0.000    0.125 
#
# Total GULP energy -356385.323030 kJ/mol
# GULP energy per Si atom -5568.520672 kJ/mol
# Density = 1.649665 g / cm^3
# Si number density = 16.534286 Si / 1000 Ang^3
#
#
#
# Elastic Constant Matrix: (Units=GPa)
#
#
# Indices 1 2 3 4 5 6 
#
# 1 89.7094 70.7851 28.7464 0.0000 0.0000 -0.0001
# 2 70.7851 89.7094 28.7464 0.0000 0.0000 0.0001
# 3 28.7464 28.7464 62.3804 0.0000 0.0000 0.0000
# 4 0.0000 0.0000 0.0000 17.1836 0.0000 0.0000
# 5 0.0000 0.0000 0.0000 0.0000 17.1836 0.0000
# 6 -0.0001 0.0001 0.0000 0.0000 0.0000 8.3796
#
#
#
# Elastic Compliance Matrix: (Units=1/GPa)
#
#
# Indices 1 2 3 4 5 6 
#
# 1 0.030152 -0.022690 -0.003439 0.000000 0.000000 0.000001
# 2 -0.022690 0.030152 -0.003439 0.000000 0.000000 -0.000001
# 3 -0.003439 -0.003439 0.019200 0.000000 0.000000 0.000000
# 4 0.000000 0.000000 0.000000 0.058195 0.000000 0.000000
# 5 0.000000 0.000000 0.000000 0.000000 0.058195 0.000000
# 6 0.000001 -0.000001 0.000000 0.000000 0.000000 0.119337
#
#
# Mechanical properties :
#
#
# Convention : Reuss Voigt Hill
#
# Bulk Modulus (GPa) = 49.09273 55.37280 52.23277
# Shear Modulus (GPa) = 13.11794 16.11744 14.61769
#
# Velocity S-wave (km/s) = 2.81975 3.12555 2.97658
# Velocity P-wave (km/s) = 6.35274 6.82553 6.59337
#
# Compressibility (1/GPa) = 0.02036962
#
# Stress axis : x y z
#
# Youngs Moduli (GPa) = 33.16487 33.16487 52.08279
#
# Poissons Ratio (x) = 0.75250 0.17911
# Poissons Ratio (y) = 0.75250 0.17911
# Poissons Ratio (z) = 0.11405 0.11405
#
# Static dielectric constant tensor:
#      x y z
#    x 1.550590 0.000000 0.000000 
#    y 0.000000 1.550590 0.000000 
#    z 0.000000 0.000000 1.572990 
# 
# From -- ./inp_files/1611.got.cif
#   From: 2010.05.17/outbox.cif.g08.bks.cpg/sg99_cif.got.tgz:1611.got - 2010.06.03 20:08:18.
