data_PCOD9552125
_publ_section_title
;
Structure prediction by ZEFSAII (Michael W. Deem and Ramdas Pophale) SiO2 
 PCOD9552125
Probable space group: P 4 M M
;
_chemical_formula_sum "Si O2"
_cell_formula_units_Z 56
_cell_length_a 14.193307
_cell_length_b 14.193307
_cell_length_c 18.456514
_cell_angle_alpha 90.000000
_cell_angle_beta 90.000000
_cell_angle_gamma 90.000000
_cell_volume 3718.064073
_symmetry_space_group_name_H-M "P 4 M M"
_symmetry_group_IT_number 99
_symmetry_cell_setting 'tetragonal'
loop_
_space_group_symop_operation_xyz
x,y,z
-y,x,z
-x,-y,z
y,-x,z
-x,y,z
x,-y,z
-y,-x,z
y,x,z
loop_
_atom_site_type_symbol
_atom_site_label
_atom_site_fract_x
_atom_site_fract_y
_atom_site_fract_z
Si Si1 0.392295 0.885854 0.109600
Si Si2 0.889527 0.389953 0.827618
Si Si3 0.887566 0.267844 0.970684
Si Si4 0.113400 0.267548 0.249479
Si Si5 0.391778 0.885541 0.388272
Si Si6 0.612314 0.765812 0.685626
Si Si7 0.108138 0.614561 0.548982
O O1 0.500000 0.850885 0.110499
O O2 0.333604 0.860905 0.181200
O O3 0.397293 0.000000 0.108978
O O4 0.334987 0.859195 0.037716
O O5 0.875338 0.500000 0.847869
O O6 0.870100 0.323754 0.895974
O O7 0.826072 0.368894 0.758099
O O8 0.000000 0.379859 0.808169
O O9 0.826623 0.173378 0.972934
O O10 0.000000 0.249968 0.976080
O O11 0.171018 0.171018 0.245077
O O12 0.139748 0.323481 0.322779
O O13 0.000000 0.253335 0.248716
O O14 0.500000 0.853881 0.376070
O O15 0.358617 0.856826 0.468655
O O16 0.394989 0.000000 0.390266
O O17 0.500000 0.750840 0.681247
O O18 0.669925 0.669925 0.688021
O O19 0.642501 0.826243 0.615384
O O20 0.105321 0.500000 0.548377
O O21 0.000000 0.646701 0.559150
#
# Coordination Sequence:
#
# PCOD9552125 Si02
#       7
#     8   8   8   8   8   8   8
#     4   9  17  30  47  64  82 106 139 180 219 245
#     4   9  17  30  48  67  85 107 140 185 229 256
#     4  10  19  30  45  66  93 121 145 169 201 248
#     4  10  19  29  42  62  89 119 147 173 205 251
#     4   8  14  26  44  64  85 108 137 179 225 258
#     4  10  19  29  42  61  86 115 144 174 211 259
#     4   8  14  26  44  64  84 106 136 178 225 263
#
# _framework density 15.0616
#
# number of rings (size 3 to 8) (size 9 to 14) (size 15 to 20)
#    0.000    2.857    0.000    3.000    0.000    6.143 
#    0.000    0.000    0.000    2.571    0.000    0.000 
#    0.000   25.143    0.000    0.571    0.000    0.000 
#
# Total GULP energy -311869.146741 kJ/mol
# GULP energy per Si atom -5569.091906 kJ/mol
# Density = 1.502732 g / cm^3
# Si number density = 15.061600 Si / 1000 Ang^3
#
#
#
# Elastic Constant Matrix: (Units=GPa)
#
#
# Indices 1 2 3 4 5 6 
#
# 1 60.0732 44.8366 55.7354 0.0000 0.0000 -0.0003
# 2 44.8366 60.0732 55.7354 0.0000 0.0000 0.0003
# 3 55.7354 55.7354 130.9254 0.0000 0.0000 0.0000
# 4 0.0000 0.0000 0.0000 6.7685 0.0000 0.0000
# 5 0.0000 0.0000 0.0000 0.0000 6.7685 0.0000
# 6 -0.0003 0.0003 0.0000 0.0000 0.0000 20.8388
#
#
#
# Elastic Compliance Matrix: (Units=1/GPa)
#
#
# Indices 1 2 3 4 5 6 
#
# 1 0.041518 -0.024113 -0.007409 0.000000 0.000000 0.000001
# 2 -0.024113 0.041518 -0.007409 0.000000 0.000000 -0.000001
# 3 -0.007409 -0.007409 0.013946 0.000000 0.000000 0.000000
# 4 0.000000 0.000000 0.000000 0.147743 0.000000 0.000000
# 5 0.000000 0.000000 0.000000 0.000000 0.147743 0.000000
# 6 0.000001 -0.000001 0.000000 0.000000 0.000000 0.047987
#
#
# Mechanical properties :
#
#
# Convention : Reuss Voigt Hill
#
# Bulk Modulus (GPa) = 52.30521 62.63183 57.46852
# Shear Modulus (GPa) = 9.52941 13.19279 11.36110
#
# Velocity S-wave (km/s) = 2.51807 2.96281 2.74945
# Velocity P-wave (km/s) = 6.57702 7.30605 6.95110
#
# Compressibility (1/GPa) = 0.01911855
#
# Stress axis : x y z
#
# Youngs Moduli (GPa) = 24.08592 24.08592 71.70426
#
# Poissons Ratio (x) = 0.58080 0.53127
# Poissons Ratio (y) = 0.58080 0.53127
# Poissons Ratio (z) = 0.17846 0.17846
#
# Static dielectric constant tensor:
#      x y z
#    x 1.480300 0.000000 0.000000 
#    y 0.000000 1.480300 0.000000 
#    z 0.000000 0.000000 1.514180 
# 
# From -- ./inp_files/2010.got.cif
#   From: 2010.05.17/outbox.cif.g08.bks.cpg/sg99_cif.got.tgz:2010.got - 2010.06.03 20:08:18.
