data_PCOD9552296
_publ_section_title
;
Structure prediction by ZEFSAII (Michael W. Deem and Ramdas Pophale) SiO2 
 PCOD9552296
Probable space group: P 4 B M
;
_chemical_formula_sum "Si O2"
_cell_formula_units_Z 32
_cell_length_a 12.980868
_cell_length_b 12.980868
_cell_length_c 9.358781
_cell_angle_alpha 90.000000
_cell_angle_beta 90.000000
_cell_angle_gamma 90.000000
_cell_volume 1576.982057
_symmetry_space_group_name_H-M "P 4 B M"
_symmetry_group_IT_number 100
_symmetry_cell_setting 'tetragonal'
loop_
_space_group_symop_operation_xyz
x,y,z
-y,x,z
-x,-y,z
y,-x,z
1/2-x,1/2+y,z
1/2+x,1/2-y,z
1/2-y,1/2-x,z
1/2+y,1/2+x,z
loop_
_atom_site_type_symbol
_atom_site_label
_atom_site_fract_x
_atom_site_fract_y
_atom_site_fract_z
Si Si1 0.336489 0.540163 0.860440
Si Si2 0.498367 0.167837 0.640928
Si Si3 0.286213 0.618633 0.171292
Si Si4 0.567150 0.240306 0.348887
O O1 0.379688 0.426738 0.825277
O O2 0.232705 0.548288 0.770646
O O3 0.320306 0.559543 0.028753
O O4 0.594468 0.094468 0.684392
O O5 0.537304 0.243499 0.515526
O O6 0.410214 0.089787 0.585087
O O7 0.215853 0.715853 0.129628
O O8 0.376753 0.662249 0.274237
O O9 0.222727 0.537253 0.263344
O O10 0.645827 0.145827 0.334792
#
# Coordination Sequence:
#
# PCOD9552296 Si02
#       4
#     8   8   8   8
#     4  11  24  42  63  93 130 171 214 264 322 386
#     4  10  23  43  66  95 131 170 216 269 325 387
#     4  11  22  40  67  94 125 170 213 262 323 382
#     4  10  23  41  64  96 128 165 213 265 320 385
#
# _framework density 20.291924999999999
#
# number of rings (size 3 to 8) (size 9 to 14) (size 15 to 20)
#    0.000    1.500    2.500    1.500    3.500    5.000 
#    0.000    0.000    0.000    0.000    0.000    0.000 
#    0.000    0.000    0.000    0.000    0.000    0.000 
#
# Total GULP energy -178525.143498 kJ/mol
# GULP energy per Si atom -5578.910734 kJ/mol
# Density = 2.024574 g / cm^3
# Si number density = 20.291925 Si / 1000 Ang^3
#
#
#
# Elastic Constant Matrix: (Units=GPa)
#
#
# Indices 1 2 3 4 5 6 
#
# 1 64.8179 11.1466 54.9966 0.0000 0.0000 -0.0001
# 2 11.1466 64.8179 54.9966 0.0000 0.0000 0.0001
# 3 54.9966 54.9966 98.8826 0.0000 0.0000 0.0000
# 4 0.0000 0.0000 0.0000 34.9837 0.0000 0.0000
# 5 0.0000 0.0000 0.0000 0.0000 34.9837 0.0000
# 6 -0.0001 0.0001 0.0000 0.0000 0.0000 -2.0323
#
#
#
# Elastic Compliance Matrix: (Units=1/GPa)
#
#
# Indices 1 2 3 4 5 6 
#
# 1 0.043126 0.024494 -0.037609 0.000000 0.000000 -0.000001
# 2 0.024494 0.043126 -0.037609 0.000000 0.000000 0.000001
# 3 -0.037609 -0.037609 0.051948 0.000000 0.000000 0.000000
# 4 0.000000 0.000000 0.000000 0.028585 0.000000 0.000000
# 5 0.000000 0.000000 0.000000 0.000000 0.028585 0.000000
# 6 -0.000001 0.000001 0.000000 0.000000 0.000000 -0.492064
#
#
# Mechanical properties :
#
#
# Convention : Reuss Voigt Hill
#
# Bulk Modulus (GPa) = 27.20930 52.31088 39.76009
# Shear Modulus (GPa) = -27.32309 20.74561 -3.28874
#
# Velocity S-wave (km/s) = -3.67345 3.20090 -1.27445
# Velocity P-wave (km/s) = 2.13408 6.28460 4.17983
#
# Compressibility (1/GPa) = 0.03675214
#
# Stress axis : x y z
#
# Youngs Moduli (GPa) = 23.18781 23.18781 19.25007
#
# Poissons Ratio (x) = -0.56797 0.72398
# Poissons Ratio (y) = -0.56797 0.72398
# Poissons Ratio (z) = 0.87207 0.87207
#
# Static dielectric constant tensor:
#      x y z
#    x 1.720130 0.000000 0.000000 
#    y 0.000000 1.720130 0.000000 
#    z 0.000000 0.000000 1.715690 
# 
# From -- ./inp_files/1104.got.cif
#   From: 2010.05.17/outbox.cif.g08.bks.cpg/sg100_cif.got.tgz:1104.got - 2010.05.20 10:33:20.
