data_PCOD9552474
_publ_section_title
;
Structure prediction by ZEFSAII (Michael W. Deem and Ramdas Pophale) SiO2 
 PCOD9552474
Probable space group: P 42 C M
;
_chemical_formula_sum "Si O2"
_cell_formula_units_Z 54
_cell_length_a 15.656027
_cell_length_b 15.656027
_cell_length_c 10.635998
_cell_angle_alpha 90.000000
_cell_angle_beta 90.000000
_cell_angle_gamma 90.000000
_cell_volume 2607.002035
_symmetry_space_group_name_H-M "P 42 C M"
_symmetry_group_IT_number 101
_symmetry_cell_setting 'tetragonal'
loop_
_space_group_symop_operation_xyz
x,y,z
-y,x,1/2+z
-x,-y,z
y,-x,1/2+z
-x,y,1/2+z
x,-y,1/2+z
-y,-x,z
y,x,z
loop_
_atom_site_type_symbol
_atom_site_label
_atom_site_fract_x
_atom_site_fract_y
_atom_site_fract_z
Si Si1 0.112121 0.248028 0.794390
Si Si2 0.413121 0.413121 0.523869
Si Si3 0.204332 0.065793 0.360409
Si Si4 0.395110 0.123663 0.979879
Si Si5 0.779869 0.443001 0.955948
Si Si6 0.061786 0.351989 0.562897
Si Si7 0.192652 0.673842 0.719735
Si Si8 0.500000 0.500000 0.272825
O O1 0.191567 0.191567 0.746422
O O2 0.068176 0.318841 0.704494
O O3 0.032061 0.188199 0.827088
O O4 0.138708 0.303584 0.914862
O O5 0.439368 0.313227 0.517939
O O6 0.446941 0.446941 0.382726
O O7 0.446761 0.446761 0.663189
O O8 0.120017 0.120017 0.380688
O O9 0.265337 0.068165 0.481636
O O10 0.261089 0.116377 0.256334
O O11 0.392691 0.162274 0.118452
O O12 0.399377 0.021631 0.006683
O O13 0.467572 0.178575 0.910440
O O14 0.778045 0.375575 0.842859
O O15 0.854634 0.408286 0.045108
O O16 0.270275 0.729725 0.669889
#
# Coordination Sequence:
#
# PCOD9552474 Si02
#       8
#     8   4   8   8   8   8   8   2
#     4  11  23  39  61  96 134 169 221 280 337 397
#     4  11  26  50  76 106 136 186 235 292 356 430
#     4   9  19  38  63  86 124 177 218 259 324 391
#     4  11  24  41  63  97 133 173 214 281 342 400
#     4  11  25  41  69  98 126 176 228 269 339 421
#     4  10  22  42  61  96 135 172 216 278 336 404
#     4  10  20  40  64  90 127 171 216 264 321 400
#     4  10  28  54  72  98 148 174 224 314 356 398
#
# _framework density 20.713446999999999
#
# number of rings (size 3 to 8) (size 9 to 14) (size 15 to 20)
#    0.000    1.630    2.222    1.333    6.222    0.296 
#    4.000    0.000    0.000    1.778    0.000    0.000 
#    0.000    0.000    0.000    0.000    0.000    0.000 
#
# Total GULP energy -300626.908665 kJ/mol
# GULP energy per Si atom -5567.164975 kJ/mol
# Density = 2.066630 g / cm^3
# Si number density = 20.713447 Si / 1000 Ang^3
#
#
#
# Elastic Constant Matrix: (Units=GPa)
#
#
# Indices 1 2 3 4 5 6 
#
# 1 95.2167 49.9428 7.2887 0.0000 0.0000 -0.0055
# 2 49.9428 95.2167 7.2887 0.0000 0.0000 0.0055
# 3 7.2887 7.2887 44.6843 0.0000 0.0000 0.0000
# 4 0.0000 0.0000 0.0000 3709.6838 0.0000 0.0000
# 5 0.0000 0.0000 0.0000 0.0000 3709.6838 0.0000
# 6 -0.0055 0.0055 0.0000 0.0000 0.0000 -48.9834
#
#
#
# Elastic Compliance Matrix: (Units=1/GPa)
#
#
# Indices 1 2 3 4 5 6 
#
# 1 0.014546 -0.007542 -0.001142 0.000000 0.000000 -0.000002
# 2 -0.007542 0.014546 -0.001142 0.000000 0.000000 0.000002
# 3 -0.001142 -0.001142 0.022752 0.000000 0.000000 0.000000
# 4 0.000000 0.000000 0.000000 0.000270 0.000000 0.000000
# 5 0.000000 0.000000 0.000000 0.000000 0.000270 0.000000
# 6 -0.000002 0.000002 0.000000 0.000000 0.000000 -0.020415
#
#
# Mechanical properties :
#
#
# Convention : Reuss Voigt Hill
#
# Bulk Modulus (GPa) = 31.06586 40.46200 35.76393
# Shear Modulus (GPa) = 80.19103 1485.44999 782.82051
#
# Velocity S-wave (km/s) = 6.22885 26.80857 19.46148
# Velocity P-wave (km/s) = 8.17079 31.27048 22.85393
#
# Compressibility (1/GPa) = 0.03218968
#
# Stress axis : x y z
#
# Youngs Moduli (GPa) = 68.74862 68.74862 43.95232
#
# Poissons Ratio (x) = 0.51851 0.05021
# Poissons Ratio (y) = 0.51851 0.05021
# Poissons Ratio (z) = 0.07854 0.07854
#
# Static dielectric constant tensor:
#      x y z
#    x 0.979150 0.000000 0.000000 
#    y 0.000000 0.979150 0.000000 
#    z 0.000000 0.000000 1.812800 
# 
# From -- ./inp_files/1374.got.cif
#   From: 2010.05.17/outbox.cif.g08.bks.cpg/sg101_1_cif.got.tgz:1374.got - 2010.05.20 10:34:16.
