data_PCOD9552426
_publ_section_title
;
Structure prediction by ZEFSAII (Michael W. Deem and Ramdas Pophale) SiO2 
 PCOD9552426
Probable space group: P 42 C M
;
_chemical_formula_sum "Si O2"
_cell_formula_units_Z 24
_cell_length_a 10.565531
_cell_length_b 10.565531
_cell_length_c 10.324882
_cell_angle_alpha 90.000000
_cell_angle_beta 90.000000
_cell_angle_gamma 90.000000
_cell_volume 1152.571175
_symmetry_space_group_name_H-M "P 42 C M"
_symmetry_group_IT_number 101
_symmetry_cell_setting 'tetragonal'
loop_
_space_group_symop_operation_xyz
x,y,z
-y,x,1/2+z
-x,-y,z
y,-x,1/2+z
-x,y,1/2+z
x,-y,1/2+z
-y,-x,z
y,x,z
loop_
_atom_site_type_symbol
_atom_site_label
_atom_site_fract_x
_atom_site_fract_y
_atom_site_fract_z
Si Si1 0.580431 0.124550 0.857930
Si Si2 0.600531 0.802254 0.632840
Si Si3 0.006008 0.799740 0.715773
O O1 0.517435 0.179139 0.727554
O O2 0.721481 0.078071 0.826451
O O3 0.500000 0.000000 0.891178
O O4 0.569228 0.212805 0.982242
O O5 0.686298 0.686298 0.678701
O O6 0.690995 0.927729 0.640671
O O7 0.112901 0.887100 0.647390
O O8 0.899044 0.899044 0.762012
#
# Coordination Sequence:
#
# PCOD9552426 Si02
#       3
#     8   8   8
#     4  10  19  35  57  83 116 151 187 230 282 337
#     4  10  21  37  58  82 110 149 193 235 282 333
#     4   9  18  32  54  88 122 146 174 220 281 346
#
# _framework density 20.823011000000001
#
# number of rings (size 3 to 8) (size 9 to 14) (size 15 to 20)
#    0.000    2.333    0.000    4.000    0.000    1.333 
#    0.000   13.333    0.000    8.000    0.000    0.000 
#    0.000    0.000    0.000    0.000    0.000    0.000 
#
# Total GULP energy -133741.570688 kJ/mol
# GULP energy per Si atom -5572.565445 kJ/mol
# Density = 2.077562 g / cm^3
# Si number density = 20.823011 Si / 1000 Ang^3
#
#
#
# Elastic Constant Matrix: (Units=GPa)
#
#
# Indices 1 2 3 4 5 6 
#
# 1 56.0751 40.3488 28.4929 0.0000 0.0000 0.0001
# 2 40.3488 56.0751 28.4929 0.0000 0.0000 -0.0001
# 3 28.4929 28.4929 107.9321 0.0000 0.0000 0.0000
# 4 0.0000 0.0000 0.0000 5.7678 0.0000 0.0000
# 5 0.0000 0.0000 0.0000 0.0000 5.7678 0.0000
# 6 0.0001 -0.0001 0.0000 0.0000 0.0000 17.6265
#
#
#
# Elastic Compliance Matrix: (Units=1/GPa)
#
#
# Indices 1 2 3 4 5 6 
#
# 1 0.037938 -0.025650 -0.003244 0.000000 0.000000 0.000000
# 2 -0.025650 0.037938 -0.003244 0.000000 0.000000 0.000000
# 3 -0.003244 -0.003244 0.010978 0.000000 0.000000 0.000000
# 4 0.000000 0.000000 0.000000 0.173377 0.000000 0.000000
# 5 0.000000 0.000000 0.000000 0.000000 0.173377 0.000000
# 6 0.000000 0.000000 0.000000 0.000000 0.000000 0.056733
#
#
# Mechanical properties :
#
#
# Convention : Reuss Voigt Hill
#
# Bulk Modulus (GPa) = 44.29051 46.08349 45.18700
# Shear Modulus (GPa) = 8.89456 14.01559 11.45508
#
# Velocity S-wave (km/s) = 2.06900 2.59720 2.34800
# Velocity P-wave (km/s) = 5.19845 5.58328 5.39430
#
# Compressibility (1/GPa) = 0.02257820
#
# Stress axis : x y z
#
# Youngs Moduli (GPa) = 26.35887 26.35887 91.09303
#
# Poissons Ratio (x) = 0.67610 0.29550
# Poissons Ratio (y) = 0.67610 0.29550
# Poissons Ratio (z) = 0.08551 0.08551
#
# Static dielectric constant tensor:
#      x y z
#    x 1.759210 0.000000 0.000000 
#    y 0.000000 1.759210 0.000000 
#    z 0.000000 0.000000 1.744890 
# 
# From -- ./inp_files/360.got.cif
#   From: 2010.05.17/outbox.cif.g08.bks.cpg/sg101_1_cif.got.tgz:360.got - 2010.05.20 10:34:16.
