data_PCOD9552688
_publ_section_title
;
Structure prediction by ZEFSAII (Michael W. Deem and Ramdas Pophale) SiO2 
 PCOD9552688
Probable space group: P 42 N M
;
_chemical_formula_sum "Si O2"
_cell_formula_units_Z 48
_cell_length_a 20.745209
_cell_length_b 20.745209
_cell_length_c 5.445238
_cell_angle_alpha 90.000000
_cell_angle_beta 90.000000
_cell_angle_gamma 90.000000
_cell_volume 2343.432754
_symmetry_space_group_name_H-M "P 42 N M"
_symmetry_group_IT_number 102
_symmetry_cell_setting 'tetragonal'
loop_
_space_group_symop_operation_xyz
x,y,z
1/2-y,1/2+x,1/2+z
-x,-y,z
1/2+y,1/2-x,1/2+z
1/2-x,1/2+y,1/2+z
1/2+x,1/2-y,1/2+z
-y,-x,z
y,x,z
loop_
_atom_site_type_symbol
_atom_site_label
_atom_site_fract_x
_atom_site_fract_y
_atom_site_fract_z
Si Si1 0.757328 0.111148 0.417690
Si Si2 0.178642 0.282140 0.692681
Si Si3 0.572901 0.671619 0.423181
Si Si4 0.353374 0.095808 0.330257
Si Si5 0.026374 0.652480 0.601424
Si Si6 0.453719 0.755559 0.454269
O O1 0.716878 0.177256 0.400519
O O2 0.796043 0.100648 0.671771
O O3 0.706672 0.052857 0.417785
O O4 0.798038 0.104162 0.169482
O O5 0.226529 0.226529 0.603528
O O6 0.157917 0.334696 0.490152
O O7 0.110801 0.253156 0.787313
O O8 0.597813 0.597813 0.415642
O O9 0.497373 0.691287 0.448324
O O10 0.411368 0.110041 0.148309
O O11 0.378623 0.037580 0.497288
O O12 0.287056 0.073722 0.202077
O O13 0.001996 0.690594 0.841382
#
# Coordination Sequence:
#
# PCOD9552688 Si02
#       6
#     8   8   8   8   8   8
#     4  11  21  38  63  92 121 157 203 261 321 375
#     4  11  23  38  61  92 121 158 205 263 330 382
#     4  11  22  38  62  94 124 159 208 258 317 380
#     4  11  22  41  62  84 125 170 212 265 308 377
#     4  10  22  38  62  82 122 165 212 253 308 364
#     4  10  22  39  60  85 122 164 201 261 312 378
#
# _framework density 20.482773000000002
#
# number of rings (size 3 to 8) (size 9 to 14) (size 15 to 20)
#    0.000    1.333    3.333    3.500    0.000    0.667 
#    0.000    2.500    0.000    0.500    0.000    0.000 
#    0.000    0.000    0.000    0.000    0.000    0.000 
#
# Total GULP energy -267608.994188 kJ/mol
# GULP energy per Si atom -5575.187379 kJ/mol
# Density = 2.043615 g / cm^3
# Si number density = 20.482773 Si / 1000 Ang^3
#
#
#
# Elastic Constant Matrix: (Units=GPa)
#
#
# Indices 1 2 3 4 5 6 
#
# 1 32.0946 39.4424 13.2274 0.0000 0.0000 0.0000
# 2 39.4424 32.0946 13.2274 0.0000 0.0000 0.0000
# 3 13.2274 13.2274 88.4214 0.0000 0.0000 0.0000
# 4 0.0000 0.0000 0.0000 -148.3192 0.0000 0.0000
# 5 0.0000 0.0000 0.0000 0.0000 -148.3192 0.0000
# 6 0.0000 0.0000 0.0000 0.0000 0.0000 16.7889
#
#
#
# Elastic Compliance Matrix: (Units=1/GPa)
#
#
# Indices 1 2 3 4 5 6 
#
# 1 -0.060649 0.075447 -0.002214 0.000000 0.000000 0.000000
# 2 0.075447 -0.060649 -0.002214 0.000000 0.000000 0.000000
# 3 -0.002214 -0.002214 0.011972 0.000000 0.000000 0.000000
# 4 0.000000 0.000000 0.000000 -0.006742 0.000000 0.000000
# 5 0.000000 0.000000 0.000000 0.000000 -0.006742 0.000000
# 6 0.000000 0.000000 0.000000 0.000000 0.000000 0.059563
#
#
# Mechanical properties :
#
#
# Convention : Reuss Voigt Hill
#
# Bulk Modulus (GPa) = 30.56971 31.60053 31.08512
# Shear Modulus (GPa) = -25.72250 -50.18901 -37.95576
#
# Velocity S-wave (km/s) = -3.54759 -4.95542 -4.30939
# Velocity P-wave (km/s) = 1.35037 4.15696 3.09061
#
# Compressibility (1/GPa) = 0.03271212
#
# Stress axis : x y z
#
# Youngs Moduli (GPa) = -16.48827 -16.48827 83.52981
#
# Poissons Ratio (x) = 1.24398 0.18490
# Poissons Ratio (y) = 1.24398 0.18490
# Poissons Ratio (z) = -0.03650 -0.03650
#
# Static dielectric constant tensor:
#      x y z
#    x 1.763590 0.000000 0.000000 
#    y 0.000000 1.763590 0.000000 
#    z 0.000000 0.000000 1.786840 
# 
# From -- ./inp_files/345.got.cif
#   From: 2010.05.17/outbox.cif.g08.bks.cpg/sg102_1_cif.got.tgz:345.got - 2010.05.20 10:36:12.
