data_PCOD9552706
_publ_section_title
;
Structure prediction by ZEFSAII (Michael W. Deem and Ramdas Pophale) SiO2 
 PCOD9552706
Probable space group: P 42 N M
;
_chemical_formula_sum "Si O2"
_cell_formula_units_Z 48
_cell_length_a 11.540811
_cell_length_b 11.540811
_cell_length_c 17.838988
_cell_angle_alpha 90.000000
_cell_angle_beta 90.000000
_cell_angle_gamma 90.000000
_cell_volume 2375.980494
_symmetry_space_group_name_H-M "P 42 N M"
_symmetry_group_IT_number 102
_symmetry_cell_setting 'tetragonal'
loop_
_space_group_symop_operation_xyz
x,y,z
1/2-y,1/2+x,1/2+z
-x,-y,z
1/2+y,1/2-x,1/2+z
1/2-x,1/2+y,1/2+z
1/2+x,1/2-y,1/2+z
-y,-x,z
y,x,z
loop_
_atom_site_type_symbol
_atom_site_label
_atom_site_fract_x
_atom_site_fract_y
_atom_site_fract_z
Si Si1 0.899626 0.584168 0.829820
Si Si2 0.921139 0.266440 0.474252
Si Si3 0.686699 0.502625 0.124040
Si Si4 0.940033 0.749164 0.059996
Si Si5 0.326965 0.864355 0.172505
Si Si6 0.813553 0.009578 0.898562
O O1 0.817423 0.609041 0.760283
O O2 0.962355 0.701210 0.857246
O O3 0.000000 0.500000 0.803295
O O4 0.833986 0.532526 0.902461
O O5 0.827541 0.172460 0.446238
O O6 0.849427 0.356128 0.526149
O O7 0.003848 0.205589 0.534090
O O8 0.588065 0.411936 0.147754
O O9 0.630209 0.630209 0.139190
O O10 0.804626 0.453352 0.159672
O O11 0.857036 0.857036 0.082981
O O12 0.022727 0.698052 0.123198
O O13 0.013903 0.788378 0.987445
O O14 0.231530 0.768471 0.150652
O O15 0.910186 0.910186 0.888899
O O16 0.870732 0.129269 0.872134
#
# Coordination Sequence:
#
# PCOD9552706 Si02
#       6
#     8   8   8   8   8   8
#     4  11  24  37  53  85 118 156 188 229 285 349
#     4   9  19  38  61  80 110 147 187 238 285 334
#     4   9  20  37  59  86 112 148 195 238 283 338
#     4   9  19  35  60  89 111 142 190 242 292 340
#     4  11  23  37  57  82 117 154 188 233 286 346
#     4   9  18  37  64  87 109 143 195 253 295 332
#
# _framework density 20.202183999999999
#
# number of rings (size 3 to 8) (size 9 to 14) (size 15 to 20)
#    0.000    2.333    0.000    3.000    7.000    1.667 
#    0.000    3.333    0.000    2.000    0.000    0.000 
#    0.000    0.000    0.000    0.000    0.000    0.000 
#
# Total GULP energy -267654.156690 kJ/mol
# GULP energy per Si atom -5576.128264 kJ/mol
# Density = 2.015620 g / cm^3
# Si number density = 20.202184 Si / 1000 Ang^3
#
#
#
# Elastic Constant Matrix: (Units=GPa)
#
#
# Indices 1 2 3 4 5 6 
#
# 1 47.7880 12.1624 23.5966 0.0000 0.0000 -0.0002
# 2 12.1624 47.7880 23.5966 0.0000 0.0000 0.0002
# 3 23.5966 23.5966 68.1554 0.0000 0.0000 0.0000
# 4 0.0000 0.0000 0.0000 20.8385 0.0000 0.0000
# 5 0.0000 0.0000 0.0000 0.0000 20.8385 0.0000
# 6 -0.0002 0.0002 0.0000 0.0000 0.0000 16.1331
#
#
#
# Elastic Compliance Matrix: (Units=1/GPa)
#
#
# Indices 1 2 3 4 5 6 
#
# 1 0.025500 -0.002570 -0.007939 0.000000 0.000000 0.000000
# 2 -0.002570 0.025500 -0.007939 0.000000 0.000000 0.000000
# 3 -0.007939 -0.007939 0.020169 0.000000 0.000000 0.000000
# 4 0.000000 0.000000 0.000000 0.047988 0.000000 0.000000
# 5 0.000000 0.000000 0.000000 0.000000 0.047988 0.000000
# 6 0.000000 0.000000 0.000000 0.000000 0.000000 0.061984
#
#
# Mechanical properties :
#
#
# Convention : Reuss Voigt Hill
#
# Bulk Modulus (GPa) = 29.17646 31.38252 30.27949
# Shear Modulus (GPa) = 18.02134 18.52042 18.27088
#
# Velocity S-wave (km/s) = 2.98996 3.03108 3.01059
# Velocity P-wave (km/s) = 5.13745 5.27426 5.20631
#
# Compressibility (1/GPa) = 0.03427421
#
# Stress axis : x y z
#
# Youngs Moduli (GPa) = 39.21603 39.21603 49.58003
#
# Poissons Ratio (x) = 0.10078 0.39360
# Poissons Ratio (y) = 0.10078 0.39360
# Poissons Ratio (z) = 0.31133 0.31133
#
# Static dielectric constant tensor:
#      x y z
#    x 1.741760 0.000000 0.000000 
#    y 0.000000 1.741760 0.000000 
#    z 0.000000 0.000000 1.706640 
# 
# From -- ./inp_files/2711.got.cif
#   From: 2010.05.17/outbox.cif.g08.bks.cpg/sg102_2_cif.got.tgz:2711.got - 2010.05.20 10:36:12.
