data_PCOD9552811
_publ_section_title
;
Structure prediction by ZEFSAII (Michael W. Deem and Ramdas Pophale) SiO2 
 PCOD9552811
Probable space group: P 4 C C
;
_chemical_formula_sum "Si O2"
_cell_formula_units_Z 58
_cell_length_a 10.095695
_cell_length_b 10.095695
_cell_length_c 22.784731
_cell_angle_alpha 90.000000
_cell_angle_beta 90.000000
_cell_angle_gamma 90.000000
_cell_volume 2322.289449
_symmetry_space_group_name_H-M "P 4 C C"
_symmetry_group_IT_number 103
_symmetry_cell_setting 'tetragonal'
loop_
_space_group_symop_operation_xyz
x,y,z
-y,x,z
-x,-y,z
y,-x,z
-x,y,1/2+z
x,-y,1/2+z
-y,-x,1/2+z
y,x,1/2+z
loop_
_atom_site_type_symbol
_atom_site_label
_atom_site_fract_x
_atom_site_fract_y
_atom_site_fract_z
Si Si1 0.529486 0.278267 0.865870
Si Si2 0.788281 0.063160 0.396839
Si Si3 0.635480 0.882280 0.652670
Si Si4 0.000000 0.000000 0.551415
Si Si5 0.276354 0.518706 0.235064
Si Si6 0.720229 0.143800 0.583795
Si Si7 0.217157 0.048574 0.768775
Si Si8 0.443896 0.140047 0.979697
O O1 0.642909 0.390126 0.867099
O O2 0.536192 0.212414 0.800646
O O3 0.535287 0.202502 0.928367
O O4 0.724358 0.070454 0.332733
O O5 0.686517 0.103644 0.444276
O O6 0.915811 0.155797 0.401438
O O7 0.500749 0.812408 0.676785
O O8 0.739835 0.777390 0.625335
O O9 0.688946 0.930236 0.715468
O O10 0.652301 0.012894 0.612624
O O11 0.856055 0.081890 0.555302
O O12 0.363270 0.383274 0.233969
O O13 0.613921 0.207496 0.538071
O O14 0.095157 0.150827 0.764648
O O15 0.500000 0.000000 0.999153
#
# Coordination Sequence:
#
# PCOD9552811 Si02
#       8
#     8   8   8   2   8   8   8   8
#     4   9  21  45  72  93 120 165 215 268 331 386
#     4   9  21  37  61  93 126 161 195 251 330 390
#     4  11  19  37  62  89 122 168 197 253 311 372
#     4   8  20  40  60  80 106 168 216 252 308 378
#     4   9  20  41  67  91 115 155 210 261 314 378
#     4  10  24  36  59  91 127 169 214 249 307 385
#     4   9  16  31  58  92 123 147 187 239 298 383
#     4  12  27  41  60  91 131 165 213 275 305 370
#
# _framework density 24.975352999999998
#
# number of rings (size 3 to 8) (size 9 to 14) (size 15 to 20)
#    0.000    2.207    1.379    2.483    5.793    1.103 
#    2.483    0.000    0.000    1.655    0.000    0.000 
#    0.000    0.000    0.000    0.000    0.000    0.000 
#
# Total GULP energy -323511.699862 kJ/mol
# GULP energy per Si atom -5577.787929 kJ/mol
# Density = 2.491851 g / cm^3
# Si number density = 24.975353 Si / 1000 Ang^3
#
#
#
# Elastic Constant Matrix: (Units=GPa)
#
#
# Indices 1 2 3 4 5 6 
#
# 1 65.5279 14.9337 28.6334 0.0000 0.0000 0.0000
# 2 14.9337 65.5279 28.6334 0.0000 0.0000 0.0000
# 3 28.6334 28.6334 121.0907 0.0000 0.0000 0.0000
# 4 0.0000 0.0000 0.0000 53.5862 0.0000 0.0000
# 5 0.0000 0.0000 0.0000 0.0000 53.5862 0.0000
# 6 0.0000 0.0000 0.0000 0.0000 0.0000-2075.2106
#
#
#
# Elastic Compliance Matrix: (Units=1/GPa)
#
#
# Indices 1 2 3 4 5 6 
#
# 1 0.017354 -0.002411 -0.003534 0.000000 0.000000 0.000000
# 2 -0.002411 0.017354 -0.003534 0.000000 0.000000 0.000000
# 3 -0.003534 -0.003534 0.009929 0.000000 0.000000 0.000000
# 4 0.000000 0.000000 0.000000 0.018662 0.000000 0.000000
# 5 0.000000 0.000000 0.000000 0.000000 0.018662 0.000000
# 6 0.000000 0.000000 0.000000 0.000000 0.000000 -0.000482
#
#
# Mechanical properties :
#
#
# Convention : Reuss Voigt Hill
#
# Bulk Modulus (GPa) = 38.93825 44.06086 41.49955
# Shear Modulus (GPa) = 45.87353 -381.61125 -167.86886
#
# Velocity S-wave (km/s) = 4.29038 -12.37444 -8.20730
# Velocity P-wave (km/s) = 6.33780 13.65610 8.55340
#
# Compressibility (1/GPa) = 0.02568169
#
# Stress axis : x y z
#
# Youngs Moduli (GPa) = 57.62313 57.62313 100.71146
#
# Poissons Ratio (x) = 0.13893 0.35586
# Poissons Ratio (y) = 0.13893 0.35586
# Poissons Ratio (z) = 0.20361 0.20361
#
# Static dielectric constant tensor:
#      x y z
#    x 1.893870 0.000000 0.000000 
#    y 0.000000 1.893870 0.000000 
#    z 0.000000 0.000000 2.023010 
# 
# From -- ./inp_files/1318.got.cif
#   From: 2010.05.17/outbox.cif.g08.bks.cpg/sg103_cif.got.tgz:1318.got - 2010.05.20 10:38:24.
