data_PCOD9552314
_publ_section_title
;
Structure prediction by ZEFSAII (Michael W. Deem and Ramdas Pophale) SiO2 
 PCOD9552314
Probable space group: P 4 B M
;
_chemical_formula_sum "Si O2"
_cell_formula_units_Z 64
_cell_length_a 13.989912
_cell_length_b 13.989912
_cell_length_c 19.898662
_cell_angle_alpha 90.000000
_cell_angle_beta 90.000000
_cell_angle_gamma 90.000000
_cell_volume 3894.519121
_symmetry_space_group_name_H-M "P 4 B M"
_symmetry_group_IT_number 100
_symmetry_cell_setting 'tetragonal'
loop_
_space_group_symop_operation_xyz
x,y,z
-y,x,z
-x,-y,z
y,-x,z
1/2-x,1/2+y,z
1/2+x,1/2-y,z
1/2-y,1/2-x,z
1/2+y,1/2+x,z
loop_
_atom_site_type_symbol
_atom_site_label
_atom_site_fract_x
_atom_site_fract_y
_atom_site_fract_z
Si Si1 0.997158 0.341936 0.721230
Si Si2 0.844960 0.042928 0.475041
Si Si3 0.659895 0.477152 0.973714
Si Si4 0.259075 0.599173 0.264501
Si Si5 0.997158 0.658064 0.880234
Si Si6 0.759075 0.099173 0.336963
Si Si7 0.159895 0.977151 0.627751
Si Si8 0.655040 0.457073 0.126424
O O1 0.896525 0.396525 0.706601
O O2 1.000000 0.319071 0.800732
O O3 0.079367 0.420634 0.709398
O O4 0.019038 0.248746 0.677691
O O5 0.777561 0.074335 0.414826
O O6 0.805994 0.041563 0.551015
O O7 0.936343 0.112683 0.468060
O O8 0.603547 0.577907 0.965033
O O9 0.748745 0.480963 0.923773
O O10 0.694007 0.458438 0.050449
O O11 0.173011 0.673011 0.271423
O O12 0.239324 0.500000 0.300732
O O13 0.350489 0.649511 0.300732
O O14 0.277562 0.574334 0.186638
O O15 0.079368 0.579368 0.892066
O O16 0.896526 0.603475 0.894862
O O17 0.673011 0.173011 0.330041
O O18 0.077907 0.896453 0.636432
O O19 0.612683 0.563658 0.133403
#
# Coordination Sequence:
#
# PCOD9552314 Si02
#       8
#     8   8   8   8   8   8   8   8
#     4   9  19  36  55  75 103 143 188 224 260 318
#     4   9  17  33  56  78 102 136 177 219 262 313
#     4   9  19  34  53  82 112 136 171 221 273 320
#     4  11  22  35  55  82 107 139 183 223 265 318
#     4   9  19  36  55  75 103 143 188 224 260 318
#     4  11  22  35  55  82 107 139 183 223 265 318
#     4   9  19  34  53  82 112 136 171 221 273 320
#     4   9  17  33  56  78 102 136 177 219 262 313
#
# _framework density 16.433350999999998
#
# number of rings (size 3 to 8) (size 9 to 14) (size 15 to 20)
#    0.000    2.500    2.500    2.250    0.000    3.500 
#    0.000    8.750    0.000    0.000    0.000    0.000 
#    0.000    0.000    0.000    0.000    0.000    0.000 
#
# Total GULP energy -356382.656089 kJ/mol
# GULP energy per Si atom -5568.479001 kJ/mol
# Density = 1.639595 g / cm^3
# Si number density = 16.433351 Si / 1000 Ang^3
#
#
#
# Elastic Constant Matrix: (Units=GPa)
#
#
# Indices 1 2 3 4 5 6 
#
# 1 86.7195 26.0685 67.1192 0.0000 0.0000 0.0000
# 2 26.0685 86.7195 67.1192 0.0000 0.0000 0.0000
# 3 67.1192 67.1192 113.2841 0.0000 0.0000 0.0000
# 4 0.0000 0.0000 0.0000 25.5640 0.0000 0.0000
# 5 0.0000 0.0000 0.0000 0.0000 25.5640 0.0000
# 6 0.0000 0.0000 0.0000 0.0000 0.0000 20.2654
#
#
#
# Elastic Compliance Matrix: (Units=1/GPa)
#
#
# Indices 1 2 3 4 5 6 
#
# 1 0.023280 0.006792 -0.017817 0.000000 0.000000 0.000000
# 2 0.006792 0.023280 -0.017817 0.000000 0.000000 0.000000
# 3 -0.017817 -0.017817 0.029940 0.000000 0.000000 0.000000
# 4 0.000000 0.000000 0.000000 0.039118 0.000000 0.000000
# 5 0.000000 0.000000 0.000000 0.000000 0.039118 0.000000
# 6 0.000000 0.000000 0.000000 0.000000 0.000000 0.049345
#
#
# Mechanical properties :
#
#
# Convention : Reuss Voigt Hill
#
# Bulk Modulus (GPa) = 53.14829 67.48187 60.31508
# Shear Modulus (GPa) = 18.65424 22.70645 20.68034
#
# Velocity S-wave (km/s) = 3.37285 3.72119 3.55129
# Velocity P-wave (km/s) = 6.89783 7.72115 7.32107
#
# Compressibility (1/GPa) = 0.01881528
#
# Stress axis : x y z
#
# Youngs Moduli (GPa) = 42.95581 42.95581 33.40010
#
# Poissons Ratio (x) = -0.29175 0.59509
# Poissons Ratio (y) = -0.29175 0.59509
# Poissons Ratio (z) = 0.76535 0.76535
#
# Static dielectric constant tensor:
#      x y z
#    x 1.535760 0.000000 0.000000 
#    y 0.000000 1.535760 0.000000 
#    z 0.000000 0.000000 1.569370 
# 
# From -- ./inp_files/1486.got.cif
#   From: 2010.05.17/outbox.cif.g08.bks.cpg/sg100_cif.got.tgz:1486.got - 2010.05.20 10:33:20.
