data_PCOD9552598
_publ_section_title
;
Structure prediction by ZEFSAII (Michael W. Deem and Ramdas Pophale) SiO2 
 PCOD9552598
Probable space group: P 42 N M
;
_chemical_formula_sum "Si O2"
_cell_formula_units_Z 56
_cell_length_a 11.998095
_cell_length_b 11.998095
_cell_length_c 23.238362
_cell_angle_alpha 90.000000
_cell_angle_beta 90.000000
_cell_angle_gamma 90.000000
_cell_volume 3345.261754
_symmetry_space_group_name_H-M "P 42 N M"
_symmetry_group_IT_number 102
_symmetry_cell_setting 'tetragonal'
loop_
_space_group_symop_operation_xyz
x,y,z
1/2-y,1/2+x,1/2+z
-x,-y,z
1/2+y,1/2-x,1/2+z
1/2-x,1/2+y,1/2+z
1/2+x,1/2-y,1/2+z
-y,-x,z
y,x,z
loop_
_atom_site_type_symbol
_atom_site_label
_atom_site_fract_x
_atom_site_fract_y
_atom_site_fract_z
Si Si1 0.405655 0.088580 0.280100
Si Si2 0.810766 0.998770 0.999519
Si Si3 0.905697 0.905697 0.668634
Si Si4 0.003911 0.819006 0.228223
Si Si5 0.445744 0.257582 0.374780
Si Si6 0.331307 0.996030 0.657168
Si Si7 0.403690 0.596311 0.301224
Si Si8 0.818109 0.488824 0.617132
O O1 0.293268 0.025615 0.261953
O O2 0.389938 0.162125 0.336742
O O3 0.452612 0.155627 0.223603
O O4 0.500000 0.000000 0.293351
O O5 0.886047 0.886047 0.998390
O O6 0.729078 0.004373 0.053752
O O7 0.900474 0.099527 0.003721
O O8 0.742968 0.013612 0.939926
O O9 0.791280 0.957374 0.644683
O O10 0.878800 0.878800 0.735395
O O11 0.000000 0.000000 0.666177
O O12 0.910322 0.910322 0.241877
O O13 0.992061 0.784320 0.161468
O O14 0.123280 0.876721 0.238481
O O15 0.358526 0.358526 0.377745
O O16 0.547690 0.300241 0.335790
O O17 0.417235 0.095682 0.641153
O O18 0.374370 0.888448 0.622121
O O19 0.500000 0.500000 0.300835
#
# Coordination Sequence:
#
# PCOD9552598 Si02
#       8
#     8   8   4   8   8   8   4   8
#     4  11  20  36  52  80 110 145 180 222 273 325
#     4  10  20  34  55  82 107 136 178 224 276 329
#     4  11  22  32  54  86 111 147 181 222 284 339
#     4  10  20  33  53  80 110 144 183 222 265 320
#     4  10  19  34  54  79 110 138 169 219 275 333
#     4  10  21  35  52  77 113 144 182 224 271 327
#     4   9  16  28  50  78 108 131 159 206 271 327
#     4  10  20  36  52  76 107 148 181 224 271 319
#
# _framework density 16.740095
#
# number of rings (size 3 to 8) (size 9 to 14) (size 15 to 20)
#    0.000    1.857    5.000    1.286    2.000    4.000 
#    3.857    0.000    0.000    0.000    0.000    0.000 
#    0.000    0.000    0.000    0.000    0.000    0.000 
#
# Total GULP energy -312009.406895 kJ/mol
# GULP energy per Si atom -5571.596552 kJ/mol
# Density = 1.670199 g / cm^3
# Si number density = 16.740095 Si / 1000 Ang^3
#
#
#
# Elastic Constant Matrix: (Units=GPa)
#
#
# Indices 1 2 3 4 5 6 
#
# 1 80.3733 38.9374 36.5600 0.0000 0.0000 0.0000
# 2 38.9374 80.3733 36.5600 0.0000 0.0000 0.0000
# 3 36.5600 36.5600 107.5807 0.0000 0.0000 0.0000
# 4 0.0000 0.0000 0.0000 19.1983 0.0000 0.0000
# 5 0.0000 0.0000 0.0000 0.0000 19.1983 0.0000
# 6 0.0000 0.0000 0.0000 0.0000 0.0000 24.2087
#
#
#
# Elastic Compliance Matrix: (Units=1/GPa)
#
#
# Indices 1 2 3 4 5 6 
#
# 1 0.017360 -0.006774 -0.003598 0.000000 0.000000 0.000000
# 2 -0.006774 0.017360 -0.003598 0.000000 0.000000 0.000000
# 3 -0.003598 -0.003598 0.011741 0.000000 0.000000 0.000000
# 4 0.000000 0.000000 0.000000 0.052088 0.000000 0.000000
# 5 0.000000 0.000000 0.000000 0.000000 0.052088 0.000000
# 6 0.000000 0.000000 0.000000 0.000000 0.000000 0.041307
#
#
# Mechanical properties :
#
#
# Convention : Reuss Voigt Hill
#
# Bulk Modulus (GPa) = 53.98793 54.71579 54.35186
# Shear Modulus (GPa) = 22.11842 22.93905 22.52874
#
# Velocity S-wave (km/s) = 3.63889 3.70578 3.67249
# Velocity P-wave (km/s) = 7.06937 7.14611 7.10784
#
# Compressibility (1/GPa) = 0.01852266
#
# Stress axis : x y z
#
# Youngs Moduli (GPa) = 57.60370 57.60370 85.17473
#
# Poissons Ratio (x) = 0.39019 0.30643
# Poissons Ratio (y) = 0.39019 0.30643
# Poissons Ratio (z) = 0.20724 0.20724
#
# Static dielectric constant tensor:
#      x y z
#    x 1.593760 0.000000 0.000000 
#    y 0.000000 1.593760 0.000000 
#    z 0.000000 0.000000 1.564010 
# 
# From -- ./inp_files/3386.got.cif
#   From: 2010.05.17/outbox.cif.g08.bks.cpg/sg102_2_cif.got.tgz:3386.got - 2010.05.20 10:36:12.
