data_PCOD9552359
_publ_section_title
;
Structure prediction by ZEFSAII (Michael W. Deem and Ramdas Pophale) SiO2 
 PCOD9552359
Probable space group: P 42 C M
;
_chemical_formula_sum "Si O2"
_cell_formula_units_Z 40
_cell_length_a 11.856217
_cell_length_b 11.856217
_cell_length_c 13.926346
_cell_angle_alpha 90.000000
_cell_angle_beta 90.000000
_cell_angle_gamma 90.000000
_cell_volume 1957.624808
_symmetry_space_group_name_H-M "P 42 C M"
_symmetry_group_IT_number 101
_symmetry_cell_setting 'tetragonal'
loop_
_space_group_symop_operation_xyz
x,y,z
-y,x,1/2+z
-x,-y,z
y,-x,1/2+z
-x,y,1/2+z
x,-y,1/2+z
-y,-x,z
y,x,z
loop_
_atom_site_type_symbol
_atom_site_label
_atom_site_fract_x
_atom_site_fract_y
_atom_site_fract_z
Si Si1 0.094108 0.595923 0.587680
Si Si2 0.262566 0.433230 0.833216
Si Si3 0.745356 0.079000 0.411961
Si Si4 0.909491 0.603580 0.314249
Si Si5 0.491598 0.320114 0.616168
O O1 0.073565 0.703069 0.521464
O O2 0.098748 0.623682 0.700332
O O3 0.215179 0.543090 0.560696
O O4 0.000000 0.500000 0.571666
O O5 0.382985 0.382985 0.868160
O O6 0.170578 0.338897 0.861672
O O7 0.207089 0.554119 0.856015
O O8 0.273611 0.443436 0.717243
O O9 0.869193 0.130808 0.403225
O O10 0.712520 0.961034 0.364411
O O11 0.000000 0.500000 0.326352
O O12 0.592305 0.407696 0.638111
O O13 0.392486 0.392486 0.568383
#
# Coordination Sequence:
#
# PCOD9552359 Si02
#       5
#     8   8   8   8   8
#     4  10  18  29  48  72 102 137 178 224 265 316
#     4   8  14  25  42  63  94 136 172 204 247 303
#     4  10  18  29  47  72 102 134 174 225 277 326
#     4   8  15  27  42  66  98 133 171 214 261 312
#     4   9  17  30  47  70 106 148 181 209 252 316
#
# _framework density 20.432925000000001
#
# number of rings (size 3 to 8) (size 9 to 14) (size 15 to 20)
#    0.000    3.000    0.000    3.600    0.000    0.000 
#    0.000    1.000    0.000    3.600    0.000    7.000 
#    0.000   53.600    0.000    0.000    0.000    0.200 
#
# Total GULP energy -222783.618354 kJ/mol
# GULP energy per Si atom -5569.590459 kJ/mol
# Density = 2.038642 g / cm^3
# Si number density = 20.432925 Si / 1000 Ang^3
#
#
#
# Elastic Constant Matrix: (Units=GPa)
#
#
# Indices 1 2 3 4 5 6 
#
# 1 66.9093 36.6242 23.9777 0.0000 0.0000 0.0000
# 2 36.6242 66.9093 23.9777 0.0000 0.0000 0.0000
# 3 23.9777 23.9777 65.4882 0.0000 0.0000 0.0000
# 4 0.0000 0.0000 0.0000 -1.9780 0.0000 0.0000
# 5 0.0000 0.0000 0.0000 0.0000 -1.9780 0.0000
# 6 0.0000 0.0000 0.0000 0.0000 0.0000 50.2027
#
#
#
# Elastic Compliance Matrix: (Units=1/GPa)
#
#
# Indices 1 2 3 4 5 6 
#
# 1 0.022325 -0.010694 -0.004259 0.000000 0.000000 0.000000
# 2 -0.010694 0.022325 -0.004259 0.000000 0.000000 0.000000
# 3 -0.004259 -0.004259 0.018388 0.000000 0.000000 0.000000
# 4 0.000000 0.000000 0.000000 -0.505560 0.000000 0.000000
# 5 0.000000 0.000000 0.000000 0.000000 -0.505560 0.000000
# 6 0.000000 0.000000 0.000000 0.000000 0.000000 0.019919
#
#
# Mechanical properties :
#
#
# Convention : Reuss Voigt Hill
#
# Bulk Modulus (GPa) = 40.62336 40.94065 40.78200
# Shear Modulus (GPa) = -5.67194 16.89783 5.61295
#
# Velocity S-wave (km/s) = -1.66791 2.87886 1.65921
# Velocity P-wave (km/s) = 4.02682 5.57948 4.86548
#
# Compressibility (1/GPa) = 0.02461638
#
# Stress axis : x y z
#
# Youngs Moduli (GPa) = 44.79209 44.79209 54.38213
#
# Poissons Ratio (x) = 0.47901 0.23159
# Poissons Ratio (y) = 0.47901 0.23159
# Poissons Ratio (z) = 0.19075 0.19075
#
# Static dielectric constant tensor:
#      x y z
#    x 1.762740 0.000000 0.000000 
#    y 0.000000 1.762740 0.000000 
#    z 0.000000 0.000000 1.747490 
# 
# From -- ./inp_files/1691.got.cif
#   From: 2010.05.17/outbox.cif.g08.bks.cpg/sg101_1_cif.got.tgz:1691.got - 2010.05.20 10:34:16.
