data_PCOD9552067
_publ_section_title
;
Structure prediction by ZEFSAII (Michael W. Deem and Ramdas Pophale) SiO2 
 PCOD9552067
Probable space group: I 41 2 2
;
_chemical_formula_sum "Si O2"
_cell_formula_units_Z 72
_cell_length_a 11.107063
_cell_length_b 11.107063
_cell_length_c 25.706029
_cell_angle_alpha 90.000000
_cell_angle_beta 90.000000
_cell_angle_gamma 90.000000
_cell_volume 3171.271785
_symmetry_space_group_name_H-M "I 41 2 2"
_symmetry_group_IT_number 98
_symmetry_cell_setting 'tetragonal'
loop_
_space_group_symop_operation_xyz
x,y,z
-y,1/2+x,1/4+z
-x,-y,z
y,1/2-x,1/4+z
x,1/2-y,1/4-z
-x,1/2+y,1/4-z
y,x,-z
-y,-x,-z
1/2+x,1/2+y,1/2+z
1/2-y,x,3/4+z
1/2-x,1/2-y,1/2+z
1/2+y,-x,3/4+z
1/2+x,-y,3/4-z
1/2-x,y,3/4-z
1/2+y,1/2+x,1/2-z
1/2-y,1/2-x,1/2-z
loop_
_atom_site_type_symbol
_atom_site_label
_atom_site_fract_x
_atom_site_fract_y
_atom_site_fract_z
Si Si1 0.888610 0.388610 0.250000
Si Si2 0.417271 0.155305 0.402920
Si Si3 0.825399 0.318703 0.574251
Si Si4 0.061561 0.196995 0.545590
Si Si5 0.442250 0.378239 0.598035
O O1 0.870573 0.275982 0.287493
O O2 0.875667 0.501032 0.289709
O O3 0.555640 0.116909 0.407524
O O4 0.331142 0.118211 0.450863
O O5 0.364701 0.101518 0.349459
O O6 0.401467 0.299859 0.400202
O O7 0.776933 0.250000 0.625000
O O8 0.919997 0.228295 0.547384
O O9 0.115713 0.115713 0.500000
O O10 0.500000 0.500000 0.622524
O O11 0.467967 0.250000 0.625000
#
# Coordination Sequence:
#
# PCOD9552067 Si02
#       5
#     8  16  16  16  16
#     4  12  29  46  79 114 150 208 255 324 386 477
#     4  11  25  49  75 106 155 193 249 322 391 452
#     4  12  27  48  72 108 152 197 251 317 387 457
#     4  11  26  47  75 108 144 201 252 309 378 471
#     4  12  26  49  79 114 157 204 259 332 394 472
#
# _framework density 22.703824999999998
#
# number of rings (size 3 to 8) (size 9 to 14) (size 15 to 20)
#    0.000    0.444    6.667    1.667    6.222    0.000 
#    0.000    0.000    0.000    0.000    0.000    0.000 
#    0.000    0.000    0.000    0.000    0.000    0.000 
#
# Total GULP energy -201087.397721 kJ/mol
# GULP energy per Si atom -5585.761048 kJ/mol
# Density = 2.265215 g / cm^3
# Si number density = 22.703825 Si / 1000 Ang^3
#
#
#
# Elastic Constant Matrix: (Units=GPa)
#
#
# Indices 1 2 3 4 5 6 
#
# 1 **********11390.4818 52.4211 0.0000 0.0000 0.0000
# 2 11390.4818********** 52.4214 0.0000 0.0000 0.0000
# 3 52.4211 52.4214 107.4133 0.0000 0.0000 0.0000
# 4 0.0000 0.0000 0.0000 -132.4129 0.0000 0.0000
# 5 0.0000 0.0000 0.0000 0.0000 -132.4130 0.0000
# 6 0.0000 0.0000 0.0000 0.0000 0.0000 39.8628
#
#
#
# Elastic Compliance Matrix: (Units=1/GPa)
#
#
# Indices 1 2 3 4 5 6 
#
# 1 0.004757 0.004802 -0.004665 0.000000 0.000000 0.000000
# 2 0.004802 0.004757 -0.004665 0.000000 0.000000 0.000000
# 3 -0.004665 -0.004665 0.013863 0.000000 0.000000 0.000000
# 4 0.000000 0.000000 0.000000 -0.007552 0.000000 0.000000
# 5 0.000000 0.000000 0.000000 0.000000 -0.007552 0.000000
# 6 0.000000 0.000000 0.000000 0.000000 0.000000 0.025086
#
#
# Mechanical properties :
#
#
# Convention : Reuss Voigt Hill
#
# Bulk Modulus (GPa) = 69.82800 69.85071 69.83936
# Shear Modulus (GPa) = 105.95245 -2302.14706 -1098.09730
#
# Velocity S-wave (km/s) = 6.83875 -31.87777 -22.01617
# Velocity P-wave (km/s) = 9.65302 36.38805 24.80836
#
# Compressibility (1/GPa) = 0.01432090
#
# Stress axis : x y z
#
# Youngs Moduli (GPa) = 210.19657 210.19658 72.13269
#
# Poissons Ratio (x) = -1.00929 0.33651
# Poissons Ratio (y) = -1.00929 0.33651
# Poissons Ratio (z) = 0.98060 0.98060
#
# Static dielectric constant tensor:
#      x y z
#    x 2.186250 0.000000 0.000000 
#    y 0.000000 2.186250 0.000000 
#    z 0.000000 0.000000 1.860790 
# 
# From -- ./inp_files/10844.got.cif
#   From: 2010.05.17/outbox.cif.g08.bks.cpg/sg98_6_cif.got.tgz:10844.got - 2010.06.03 20:00:51.
