data_PCOD9552989
_publ_section_title
;
Structure prediction by ZEFSAII (Michael W. Deem and Ramdas Pophale) SiO2 
 PCOD9552989
Probable space group: P 4 N C 
;
_chemical_formula_sum "Si O2"
_cell_formula_units_Z 32
_cell_length_a 7.848623
_cell_length_b 7.848623
_cell_length_c 23.654445
_cell_angle_alpha 90.000000
_cell_angle_beta 90.000000
_cell_angle_gamma 90.000000
_cell_volume 1457.134699
_symmetry_space_group_name_H-M "P 4 N C "
_symmetry_group_IT_number 104
_symmetry_cell_setting 'tetragonal'
loop_
_space_group_symop_operation_xyz
x,y,z
-y,x,z
-x,-y,z
y,-x,z
1/2-x,1/2+y,1/2+z
1/2+x,1/2-y,1/2+z
1/2-y,1/2-x,1/2+z
1/2+y,1/2+x,1/2+z
loop_
_atom_site_type_symbol
_atom_site_label
_atom_site_fract_x
_atom_site_fract_y
_atom_site_fract_z
Si Si1 0.000000 0.500000 0.705530
Si Si2 0.000000 0.500000 0.898707
Si Si3 0.768345 0.401823 0.493388
Si Si4 0.229970 0.402573 0.802119
Si Si5 0.401823 0.231655 0.110850
O O1 0.112635 0.382714 0.746928
O O2 0.120790 0.608203 0.664091
O O3 0.879210 0.391797 0.940146
O O4 0.887365 0.617286 0.857309
O O5 0.710247 0.598335 0.491124
O O6 0.859858 0.359858 0.552119
O O7 0.399076 0.290143 0.802119
O O8 0.598335 0.289753 0.113114
#
# Coordination Sequence:
#
# PCOD9552989 Si02
#       5
#     4   4   8   8   8
#     4  11  21  38  60  84 117 153 198 246 296 357
#     4  11  21  38  60  84 117 153 198 246 296 357
#     4  11  23  39  61  89 122 159 199 246 300 358
#     4  10  22  38  58  84 114 152 196 245 298 351
#     4  11  23  39  61  89 122 159 199 246 300 358
#
# _framework density 21.960909000000001
#
# number of rings (size 3 to 8) (size 9 to 14) (size 15 to 20)
#    0.000    1.250    0.000    6.750    0.000    0.000 
#    0.000    5.000    0.000   12.000    0.000    0.000 
#    0.000    0.000    0.000    0.000    0.000    0.000 
#
# Total GULP energy -179077.895210 kJ/mol
# GULP energy per Si atom -5596.184225 kJ/mol
# Density = 2.191093 g / cm^3
# Si number density = 21.960909 Si / 1000 Ang^3
#
#
#
# Elastic Constant Matrix: (Units=GPa)
#
#
# Indices 1 2 3 4 5 6 
#
# 1 59.2591 -8.4350 25.8932 0.0000 0.0000 0.0000
# 2 -8.4350 59.2591 25.8932 0.0000 0.0000 0.0000
# 3 25.8932 25.8932 172.3686 0.0000 0.0000 0.0000
# 4 0.0000 0.0000 0.0000 24.7797 0.0000 0.0000
# 5 0.0000 0.0000 0.0000 0.0000 24.7797 0.0000
# 6 0.0000 0.0000 0.0000 0.0000 0.0000 31.8401
#
#
#
# Elastic Compliance Matrix: (Units=1/GPa)
#
#
# Indices 1 2 3 4 5 6 
#
# 1 0.019002 0.004230 -0.003490 0.000000 0.000000 0.000000
# 2 0.004230 0.019002 -0.003490 0.000000 0.000000 0.000000
# 3 -0.003490 -0.003490 0.006850 0.000000 0.000000 0.000000
# 4 0.000000 0.000000 0.000000 0.040356 0.000000 0.000000
# 5 0.000000 0.000000 0.000000 0.000000 0.040356 0.000000
# 6 0.000000 0.000000 0.000000 0.000000 0.000000 0.031407
#
#
# Mechanical properties :
#
#
# Convention : Reuss Voigt Hill
#
# Bulk Modulus (GPa) = 25.41046 41.95440 33.68243
# Shear Modulus (GPa) = 28.47537 32.78225 30.62881
#
# Velocity S-wave (km/s) = 3.60479 3.86781 3.73862
# Velocity P-wave (km/s) = 5.37791 6.25238 5.83156
#
# Compressibility (1/GPa) = 0.03935387
#
# Stress axis : x y z
#
# Youngs Moduli (GPa) = 52.62607 52.62607 145.98513
#
# Poissons Ratio (x) = -0.22259 0.50947
# Poissons Ratio (y) = -0.22259 0.50947
# Poissons Ratio (z) = 0.18366 0.18366
#
# Static dielectric constant tensor:
#      x y z
#    x 1.818550 0.000000 0.000000 
#    y 0.000000 1.818550 0.000000 
#    z 0.000000 0.000000 1.772570 
# 
# From -- ./inp_files/1531.got.cif
#   From: 2010.05.17/outbox.cif.g08.bks.cpg/sg104_cif.got.tgz:1531.got - 2010.05.20 10:39:45.
