data_PCOD9552756
_publ_section_title
;
Structure prediction by ZEFSAII (Michael W. Deem and Ramdas Pophale) SiO2 
 PCOD9552756
Probable space group: P 4 C C
;
_chemical_formula_sum "Si O2"
_cell_formula_units_Z 52
_cell_length_a 16.518065
_cell_length_b 16.518065
_cell_length_c 8.380993
_cell_angle_alpha 90.000000
_cell_angle_beta 90.000000
_cell_angle_gamma 90.000000
_cell_volume 2286.724366
_symmetry_space_group_name_H-M "P 4 C C"
_symmetry_group_IT_number 103
_symmetry_cell_setting 'tetragonal'
loop_
_space_group_symop_operation_xyz
x,y,z
-y,x,z
-x,-y,z
y,-x,z
-x,y,1/2+z
x,-y,1/2+z
-y,-x,1/2+z
y,x,1/2+z
loop_
_atom_site_type_symbol
_atom_site_label
_atom_site_fract_x
_atom_site_fract_y
_atom_site_fract_z
Si Si1 0.924870 0.172039 0.280550
Si Si2 0.907969 0.224733 0.940326
Si Si3 0.500000 0.500000 0.487859
Si Si4 0.071154 0.601022 0.904784
Si Si5 0.571154 0.898978 0.274738
Si Si6 0.000000 0.000000 0.691662
Si Si7 0.327961 0.575130 0.898971
Si Si8 0.407969 0.275267 0.239195
O O1 0.845493 0.152235 0.382947
O O2 0.001070 0.199490 0.386060
O O3 0.907798 0.230049 0.131903
O O4 0.951057 0.086368 0.200762
O O5 0.891039 0.312174 0.866132
O O6 0.586368 0.548943 0.478759
O O7 0.104699 0.525125 0.807561
O O8 0.974875 0.604699 0.871961
O O9 0.082231 0.582231 0.089761
O O10 0.608961 0.812174 0.313390
O O11 0.347765 0.654507 0.796574
O O12 0.300510 0.498930 0.793461
O O13 0.269951 0.592202 0.047618
#
# Coordination Sequence:
#
# PCOD9552756 Si02
#       8
#     8   8   2   8   8   2   8   8
#     4  10  20  35  62  95 133 169 206 252 306 372
#     4  11  22  39  63  97 130 168 210 255 311 374
#     4   8  16  30  52  86 120 166 204 222 272 370
#     4  11  24  45  70  90 115 163 222 268 313 375
#     4  11  24  45  70  90 115 163 222 268 313 375
#     4   8  16  30  52  86 120 166 204 222 272 370
#     4  10  20  35  62  95 133 169 206 252 306 372
#     4  11  22  39  63  97 130 168 210 255 311 374
#
# _framework density 22.739951000000001
#
# number of rings (size 3 to 8) (size 9 to 14) (size 15 to 20)
#    0.000    1.538    0.000    7.385    0.000    4.923 
#    0.000    9.231    0.000    0.000    0.000    0.000 
#    0.000    0.000    0.000    0.000    0.000    0.000 
#
# Total GULP energy -289875.549656 kJ/mol
# GULP energy per Si atom -5574.529801 kJ/mol
# Density = 2.268819 g / cm^3
# Si number density = 22.739951 Si / 1000 Ang^3
#
#
#
# Elastic Constant Matrix: (Units=GPa)
#
#
# Indices 1 2 3 4 5 6 
#
# 1 85.8380 2.6740 26.4545 0.0000 0.0000 0.0000
# 2 2.6740 85.8380 26.4545 0.0000 0.0000 0.0000
# 3 26.4545 26.4545 85.7383 0.0000 0.0000 0.0000
# 4 0.0000 0.0000 0.0000 20.5085 0.0000 0.0000
# 5 0.0000 0.0000 0.0000 0.0000 20.5085 0.0000
# 6 0.0000 0.0000 0.0000 0.0000 0.0000 11.1098
#
#
#
# Elastic Compliance Matrix: (Units=1/GPa)
#
#
# Indices 1 2 3 4 5 6 
#
# 1 0.012939 0.000914 -0.004274 0.000000 0.000000 0.000000
# 2 0.000914 0.012939 -0.004274 0.000000 0.000000 0.000000
# 3 -0.004274 -0.004274 0.014301 0.000000 0.000000 0.000000
# 4 0.000000 0.000000 0.000000 0.048760 0.000000 0.000000
# 5 0.000000 0.000000 0.000000 0.000000 0.048760 0.000000
# 6 0.000000 0.000000 0.000000 0.000000 0.000000 0.090011
#
#
# Mechanical properties :
#
#
# Convention : Reuss Voigt Hill
#
# Bulk Modulus (GPa) = 40.14505 40.95336 40.54920
# Shear Modulus (GPa) = 19.89798 23.88080 21.88939
#
# Velocity S-wave (km/s) = 2.96129 3.24415 3.10594
# Velocity P-wave (km/s) = 5.42076 5.66403 5.54373
#
# Compressibility (1/GPa) = 0.02490967
#
# Stress axis : x y z
#
# Youngs Moduli (GPa) = 77.28771 77.28771 69.92489
#
# Poissons Ratio (x) = -0.07066 0.29888
# Poissons Ratio (y) = -0.07066 0.29888
# Poissons Ratio (z) = 0.33035 0.33035
#
# Static dielectric constant tensor:
#      x y z
#    x 1.855390 0.000000 0.000000 
#    y 0.000000 1.855390 0.000000 
#    z 0.000000 0.000000 1.827590 
# 
# From -- ./inp_files/322.got.cif
#   From: 2010.05.17/outbox.cif.g08.bks.cpg/sg103_cif.got.tgz:322.got - 2010.05.20 10:38:24.
