data_PCOD9552406
_publ_section_title
;
Structure prediction by ZEFSAII (Michael W. Deem and Ramdas Pophale) SiO2 
 PCOD9552406
Probable space group: P 42 C M
;
_chemical_formula_sum "Si O2"
_cell_formula_units_Z 48
_cell_length_a 11.101537
_cell_length_b 11.101537
_cell_length_c 19.517042
_cell_angle_alpha 90.000000
_cell_angle_beta 90.000000
_cell_angle_gamma 90.000000
_cell_volume 2405.360740
_symmetry_space_group_name_H-M "P 42 C M"
_symmetry_group_IT_number 101
_symmetry_cell_setting 'tetragonal'
loop_
_space_group_symop_operation_xyz
x,y,z
-y,x,1/2+z
-x,-y,z
y,-x,1/2+z
-x,y,1/2+z
x,-y,1/2+z
-y,-x,z
y,x,z
loop_
_atom_site_type_symbol
_atom_site_label
_atom_site_fract_x
_atom_site_fract_y
_atom_site_fract_z
Si Si1 0.395747 0.895747 0.828950
Si Si2 0.448187 0.257989 0.576419
Si Si3 0.948188 0.757990 0.924504
Si Si4 0.757990 0.948187 0.576419
Si Si5 0.742011 0.448187 0.424504
Si Si6 0.895747 0.604253 0.171973
O O1 0.451375 0.785562 0.871499
O O2 0.367205 0.867205 0.750461
O O3 0.500000 0.000000 0.828111
O O4 0.285562 0.951375 0.871500
O O5 0.376669 0.376669 0.598353
O O6 0.349894 0.150106 0.572105
O O7 0.500000 0.274488 0.500461
O O8 0.548625 0.214438 0.629424
O O9 0.876669 0.876669 0.902570
O O10 0.849895 0.650106 0.928818
O O11 0.000000 0.774489 0.000462
O O12 0.876669 0.876669 0.598353
O O13 0.714438 0.048625 0.629423
O O14 0.623332 0.376669 0.402570
O O15 0.000000 0.500000 0.172812
#
# Coordination Sequence:
#
# PCOD9552406 Si02
#       6
#     8   8   8   8   8   8
#     4   9  18  32  53  83 119 153 187 236 291 340
#     4  10  19  32  55  82 111 152 196 236 283 338
#     4  10  19  32  55  82 111 152 196 236 283 338
#     4  10  19  32  55  82 111 152 196 236 283 338
#     4  10  19  32  55  82 111 152 196 236 283 338
#     4   9  18  32  53  83 119 153 187 236 291 340
#
# _framework density 19.955428000000001
#
# number of rings (size 3 to 8) (size 9 to 14) (size 15 to 20)
#    0.000    2.333    3.333    0.000    0.000    2.000 
#    0.000    6.667    0.000    4.000    0.000    4.667 
#    0.000    0.000    0.000    0.000    0.000    0.000 
#
# Total GULP energy -268121.174772 kJ/mol
# GULP energy per Si atom -5585.857808 kJ/mol
# Density = 1.991001 g / cm^3
# Si number density = 19.955428 Si / 1000 Ang^3
#
#
#
# Elastic Constant Matrix: (Units=GPa)
#
#
# Indices 1 2 3 4 5 6 
#
# 1 80.1454 67.8532 69.5409 0.0000 0.0000 -0.0003
# 2 67.8532 80.1454 69.5409 0.0000 0.0000 0.0003
# 3 69.5409 69.5409 177.8030 0.0000 0.0000 0.0000
# 4 0.0000 0.0000 0.0000 -6.8312 0.0000 0.0000
# 5 0.0000 0.0000 0.0000 0.0000 -6.8312 0.0000
# 6 -0.0003 0.0003 0.0000 0.0000 0.0000 20.2209
#
#
#
# Elastic Compliance Matrix: (Units=1/GPa)
#
#
# Indices 1 2 3 4 5 6 
#
# 1 0.046018 -0.035335 -0.004178 0.000000 0.000000 0.000001
# 2 -0.035335 0.046018 -0.004178 0.000000 0.000000 -0.000001
# 3 -0.004178 -0.004178 0.008893 0.000000 0.000000 0.000000
# 4 0.000000 0.000000 0.000000 -0.146387 0.000000 0.000000
# 5 0.000000 0.000000 0.000000 0.000000 -0.146387 0.000000
# 6 0.000001 -0.000001 0.000000 0.000000 0.000000 0.049454
#
#
# Mechanical properties :
#
#
# Convention : Reuss Voigt Hill
#
# Bulk Modulus (GPa) = 73.82297 83.55154 78.68726
# Shear Modulus (GPa) = -99.02520 10.05561 -44.48480
#
# Velocity S-wave (km/s) = -7.05202 2.24721 -4.72657
# Velocity P-wave (km/s) = 5.40682 6.97806 3.11926
#
# Compressibility (1/GPa) = 0.01354592
#
# Stress axis : x y z
#
# Youngs Moduli (GPa) = 21.73056 21.73056 112.45192
#
# Poissons Ratio (x) = 0.76784 0.46988
# Poissons Ratio (y) = 0.76784 0.46988
# Poissons Ratio (z) = 0.09080 0.09080
#
# Static dielectric constant tensor:
#      x y z
#    x 1.717600 0.000000 0.000000 
#    y 0.000000 1.717600 0.000000 
#    z 0.000000 0.000000 1.635710 
# 
# From -- ./inp_files/2125.got.cif
#   From: 2010.05.17/outbox.cif.g08.bks.cpg/sg101_2_cif.got.tgz:2125.got - 2010.05.20 10:34:16.
