data_PCOD9552064
_publ_section_title
;
Structure prediction by ZEFSAII (Michael W. Deem and Ramdas Pophale) SiO2 
 PCOD9552064
Probable space group: I 41 2 2
;
_chemical_formula_sum "Si O2"
_cell_formula_units_Z 56
_cell_length_a 17.092501
_cell_length_b 17.092501
_cell_length_c 8.095962
_cell_angle_alpha 90.000000
_cell_angle_beta 90.000000
_cell_angle_gamma 90.000000
_cell_volume 2365.264366
_symmetry_space_group_name_H-M "I 41 2 2"
_symmetry_group_IT_number 98
_symmetry_cell_setting 'tetragonal'
loop_
_space_group_symop_operation_xyz
x,y,z
-y,1/2+x,1/4+z
-x,-y,z
y,1/2-x,1/4+z
x,1/2-y,1/4-z
-x,1/2+y,1/4-z
y,x,-z
-y,-x,-z
1/2+x,1/2+y,1/2+z
1/2-y,x,3/4+z
1/2-x,1/2-y,1/2+z
1/2+y,-x,3/4+z
1/2+x,-y,3/4-z
1/2-x,y,3/4-z
1/2+y,1/2+x,1/2-z
1/2-y,1/2-x,1/2-z
loop_
_atom_site_type_symbol
_atom_site_label
_atom_site_fract_x
_atom_site_fract_y
_atom_site_fract_z
Si Si1 0.051847 0.888848 0.268491
Si Si2 0.649444 0.250000 0.625000
Si Si3 0.596573 0.659843 0.653882
Si Si4 0.473628 0.343346 0.120794
O O1 0.100756 0.811497 0.232520
O O2 0.003057 0.874284 0.439991
O O3 0.107862 0.963419 0.271422
O O4 0.983061 0.889104 0.136037
O O5 0.701231 0.201231 0.750000
O O6 0.571506 0.750000 0.625000
O O7 0.652486 0.652486 0.500000
O O8 0.640423 0.613973 0.805701
O O9 0.485534 0.250000 0.125000
#
# Coordination Sequence:
#
# PCOD9552064 Si02
#       4
#    16   8  16  16
#     4  11  25  47  73 111 159 209 268 329 405 508
#     4  12  28  44  78 118 170 214 270 344 426 508
#     4  12  27  47  74 109 152 204 270 340 408 484
#     4  11  25  46  77 109 154 210 267 331 415 494
#
# _framework density 23.675999999999998
#
# number of rings (size 3 to 8) (size 9 to 14) (size 15 to 20)
#    0.000    0.571    1.429    5.143   10.000    4.571 
#    0.000    0.000    0.000    0.000    0.000    0.000 
#    0.000    0.000    0.000    0.000    0.000    0.000 
#
# Total GULP energy -155978.147335 kJ/mol
# GULP energy per Si atom -5570.648119 kJ/mol
# Density = 2.362211 g / cm^3
# Si number density = 23.676000 Si / 1000 Ang^3
#
#
#
# Elastic Constant Matrix: (Units=GPa)
#
#
# Indices 1 2 3 4 5 6 
#
# 1 119.5408 80.5765 36.1619 0.0000 0.0000 0.0000
# 2 80.5765 119.5408 36.1619 0.0000 0.0000 0.0000
# 3 36.1619 36.1619 100.7030 0.0000 0.0000 0.0000
# 4 0.0000 0.0000 0.0000 50.8296 0.0000 0.0000
# 5 0.0000 0.0000 0.0000 0.0000 50.8296 0.0000
# 6 0.0000 0.0000 0.0000 0.0000 0.0000 47.3419
#
#
#
# Elastic Compliance Matrix: (Units=1/GPa)
#
#
# Indices 1 2 3 4 5 6 
#
# 1 0.015703 -0.009961 -0.002062 0.000000 0.000000 0.000000
# 2 -0.009961 0.015703 -0.002062 0.000000 0.000000 0.000000
# 3 -0.002062 -0.002062 0.011411 0.000000 0.000000 0.000000
# 4 0.000000 0.000000 0.000000 0.019674 0.000000 0.000000
# 5 0.000000 0.000000 0.000000 0.000000 0.019674 0.000000
# 6 0.000000 0.000000 0.000000 0.000000 0.000000 0.021123
#
#
# Mechanical properties :
#
#
# Convention : Reuss Voigt Hill
#
# Bulk Modulus (GPa) = 68.27057 71.73170 70.00113
# Shear Modulus (GPa) = 36.67277 42.25918 39.46598
#
# Velocity S-wave (km/s) = 3.93993 4.22939 4.08722
# Velocity P-wave (km/s) = 7.04240 7.36297 7.20446
#
# Compressibility (1/GPa) = 0.01464760
#
# Stress axis : x y z
#
# Youngs Moduli (GPa) = 63.68038 63.68038 87.63380
#
# Poissons Ratio (x) = 0.63433 0.18070
# Poissons Ratio (y) = 0.63433 0.18070
# Poissons Ratio (z) = 0.13131 0.13131
#
# Static dielectric constant tensor:
#      x y z
#    x 2.049960 0.000000 0.000000 
#    y 0.000000 2.049960 0.000000 
#    z 0.000000 0.000000 2.896370 
# 
# From -- ./inp_files/2974.got.cif
#   From: 2010.05.17/outbox.cif.g08.bks.cpg/sg98_2_cif.got.tgz:2974.got - 2010.06.03 20:00:51.
