data_PCOD9553238
_publ_section_title
;
Structure prediction by ZEFSAII (Michael W. Deem and Ramdas Pophale) SiO2 
 PCOD9553238
Probable space group: P 42 M C
;
_chemical_formula_sum "Si O2"
_cell_formula_units_Z 40
_cell_length_a 9.253150
_cell_length_b 9.253150
_cell_length_c 26.561142
_cell_angle_alpha 90.000000
_cell_angle_beta 90.000000
_cell_angle_gamma 90.000000
_cell_volume 2274.185826
_symmetry_space_group_name_H-M "P 42 M C"
_symmetry_group_IT_number 105
_symmetry_cell_setting 'tetragonal'
loop_
_space_group_symop_operation_xyz
x,y,z
-y,x,1/2+z
-x,-y,z
y,-x,1/2+z
-x,y,z
x,-y,z
-y,-x,1/2+z
y,x,1/2+z
loop_
_atom_site_type_symbol
_atom_site_label
_atom_site_fract_x
_atom_site_fract_y
_atom_site_fract_z
Si Si1 0.329653 0.326722 0.436650
Si Si2 0.333568 0.175640 0.744006
Si Si3 0.171270 0.827417 0.844687
Si Si4 0.672765 0.172258 0.631170
Si Si5 0.326311 0.831107 0.039724
O O1 0.500000 0.295174 0.439312
O O2 0.312056 0.500000 0.430849
O O3 0.256157 0.248099 0.389779
O O4 0.251849 0.283781 0.488659
O O5 0.500000 0.220940 0.752041
O O6 0.235890 0.219970 0.790806
O O7 0.286716 0.220779 0.687938
O O8 0.333498 0.000000 0.742867
O O9 0.000000 0.805045 0.845888
O O10 0.199053 0.000000 0.850003
O O11 0.500000 0.195025 0.625953
O O12 0.758199 0.253516 0.587874
O O13 0.698300 0.000000 0.627316
O O14 0.500000 0.819828 0.044243
O O15 0.288296 0.000000 0.036067
#
# Coordination Sequence:
#
# PCOD9553238 Si02
#       5
#     8   8   8   8   8
#     4  10  21  37  56  75  97 131 174 215 257 307
#     4   8  15  30  52  76 103 137 175 211 248 296
#     4  10  20  33  52  79 107 134 167 209 257 306
#     4   9  18  33  54  80 107 136 172 212 254 301
#     4  10  21  36  54  77 104 135 172 213 258 307
#
# _framework density 17.588712999999998
#
# number of rings (size 3 to 8) (size 9 to 14) (size 15 to 20)
#    0.000    2.600    0.000    3.000    0.000    5.600 
#    0.000    3.000    0.000    1.200    0.000    0.000 
#    0.000    0.000    0.000    0.000    0.000    0.000 
#
# Total GULP energy -223142.029764 kJ/mol
# GULP energy per Si atom -5578.550744 kJ/mol
# Density = 1.754868 g / cm^3
# Si number density = 17.588713 Si / 1000 Ang^3
#
#
#
# Elastic Constant Matrix: (Units=GPa)
#
#
# Indices 1 2 3 4 5 6 
#
# 1 61.0205 58.8655 90.0410 0.0000 0.0000 0.0000
# 2 58.8655 61.0205 90.0410 0.0000 0.0000 0.0000
# 3 90.0410 90.0410 217.3027 0.0000 0.0000 0.0000
# 4 0.0000 0.0000 0.0000 36.2373 0.0000 0.0000
# 5 0.0000 0.0000 0.0000 0.0000 36.2373 0.0000
# 6 0.0000 0.0000 0.0000 0.0000 0.0000 26.0265
#
#
#
# Elastic Compliance Matrix: (Units=1/GPa)
#
#
# Indices 1 2 3 4 5 6 
#
# 1 0.243070 -0.220979 -0.009154 0.000000 0.000000 0.000000
# 2 -0.220979 0.243070 -0.009154 0.000000 0.000000 0.000000
# 3 -0.009154 -0.009154 0.012188 0.000000 0.000000 0.000000
# 4 0.000000 0.000000 0.000000 0.027596 0.000000 0.000000
# 5 0.000000 0.000000 0.000000 0.000000 0.027596 0.000000
# 6 0.000000 0.000000 0.000000 0.000000 0.000000 0.038422
#
#
# Mechanical properties :
#
#
# Convention : Reuss Voigt Hill
#
# Bulk Modulus (GPa) = 50.61962 90.80431 70.71197
# Shear Modulus (GPa) = 4.64210 26.39328 15.51769
#
# Velocity S-wave (km/s) = 1.62634 3.87794 2.97350
# Velocity P-wave (km/s) = 5.68935 8.47288 7.21659
#
# Compressibility (1/GPa) = 0.01975519
#
# Stress axis : x y z
#
# Youngs Moduli (GPa) = 4.11404 4.11404 82.05103
#
# Poissons Ratio (x) = 0.90912 0.75106
# Poissons Ratio (y) = 0.90912 0.75106
# Poissons Ratio (z) = 0.03766 0.03766
#
# Static dielectric constant tensor:
#      x y z
#    x 1.585860 0.000000 0.000000 
#    y 0.000000 1.585860 0.000000 
#    z 0.000000 0.000000 1.582200 
# 
# From -- ./inp_files/3893.got.cif
#   From: 2010.05.17/outbox.cif.g08.bks.cpg/sg105_2_cif.got.tgz:3893.got - 2010.05.20 10:41:19.
