data_PCOD9553325
_publ_section_title
;
Structure prediction by ZEFSAII (Michael W. Deem and Ramdas Pophale) SiO2 
 PCOD9553325
Probable space group: P 42 M C
;
_chemical_formula_sum "Si O2"
_cell_formula_units_Z 48
_cell_length_a 9.936870
_cell_length_b 9.936870
_cell_length_c 27.235994
_cell_angle_alpha 90.000000
_cell_angle_beta 90.000000
_cell_angle_gamma 90.000000
_cell_volume 2689.319780
_symmetry_space_group_name_H-M "P 42 M C"
_symmetry_group_IT_number 105
_symmetry_cell_setting 'tetragonal'
loop_
_space_group_symop_operation_xyz
x,y,z
-y,x,1/2+z
-x,-y,z
y,-x,1/2+z
-x,y,z
x,-y,z
-y,-x,1/2+z
y,x,1/2+z
loop_
_atom_site_type_symbol
_atom_site_label
_atom_site_fract_x
_atom_site_fract_y
_atom_site_fract_z
Si Si1 0.344554 0.656560 0.665980
Si Si2 0.000000 0.836884 0.025895
Si Si3 0.500000 0.338521 0.985709
Si Si4 0.751968 0.840516 0.842487
Si Si5 0.500000 0.336883 0.869986
Si Si6 0.748032 0.659484 0.053394
Si Si7 0.000000 0.838521 0.910172
Si Si8 0.155446 0.156560 0.229900
O O1 0.500000 0.680988 0.679971
O O2 0.314393 0.500000 0.673779
O O3 0.333061 0.688943 0.608206
O O4 0.248873 0.748873 0.697940
O O5 0.871458 0.761102 0.048232
O O6 0.000000 0.000000 0.032498
O O7 0.000000 0.805760 0.967430
O O8 0.500000 0.500000 0.989532
O O9 0.366187 0.296280 0.014576
O O10 0.500000 0.305760 0.928450
O O11 0.628542 0.738898 0.847649
O O12 0.811058 0.833061 0.787675
O O13 0.866187 0.796280 0.881304
O O14 0.716911 0.000000 0.851251
O O15 0.500000 0.500000 0.863382
O O16 0.783089 0.500000 0.044629
O O17 0.000000 0.000000 0.906348
O O18 0.000000 0.180989 0.215910
O O19 0.185605 0.000000 0.222102
#
# Coordination Sequence:
#
# PCOD9553325 Si02
#       8
#     8   4   4   8   4   8   4   8
#     4  10  22  40  62  86 112 149 193 239 292 347
#     4  11  23  35  55  91 125 153 189 243 288 333
#     4   9  18  37  63  85 115 155 199 237 286 349
#     4  10  20  39  62  83 113 156 198 238 287 346
#     4  11  23  35  55  91 125 153 189 243 288 333
#     4  10  20  39  62  83 113 156 198 238 287 346
#     4   9  18  37  63  85 115 155 199 237 286 349
#     4  10  22  40  62  86 112 149 193 239 292 347
#
# _framework density 17.848378
#
# number of rings (size 3 to 8) (size 9 to 14) (size 15 to 20)
#    0.000    2.000    1.667    1.500    2.333    2.000 
#    0.000    2.500    0.000    0.000    0.000    0.000 
#    0.000    0.000    0.000    0.000    0.000    0.000 
#
# Total GULP energy -267846.988494 kJ/mol
# GULP energy per Si atom -5580.145594 kJ/mol
# Density = 1.780775 g / cm^3
# Si number density = 17.848378 Si / 1000 Ang^3
#
#
#
# Elastic Constant Matrix: (Units=GPa)
#
#
# Indices 1 2 3 4 5 6 
#
# 1 104.8418 84.3285 40.7007 0.0000 0.0000 0.0000
# 2 84.3285 104.8418 40.7007 0.0000 0.0000 0.0000
# 3 40.7007 40.7007 48.0547 0.0000 0.0000 0.0000
# 4 0.0000 0.0000 0.0000 32.2602 0.0000 0.0000
# 5 0.0000 0.0000 0.0000 0.0000 32.2602 0.0000
# 6 0.0000 0.0000 0.0000 0.0000 0.0000 12.5697
#
#
#
# Elastic Compliance Matrix: (Units=1/GPa)
#
#
# Indices 1 2 3 4 5 6 
#
# 1 0.028533 -0.020216 -0.007045 0.000000 0.000000 0.000000
# 2 -0.020216 0.028533 -0.007045 0.000000 0.000000 0.000000
# 3 -0.007045 -0.007045 0.032743 0.000000 0.000000 0.000000
# 4 0.000000 0.000000 0.000000 0.030998 0.000000 0.000000
# 5 0.000000 0.000000 0.000000 0.000000 0.030998 0.000000
# 6 0.000000 0.000000 0.000000 0.000000 0.000000 0.079556
#
#
# Mechanical properties :
#
#
# Convention : Reuss Voigt Hill
#
# Bulk Modulus (GPa) = 47.17158 65.46645 56.31901
# Shear Modulus (GPa) = 16.28460 21.55191 18.91826
#
# Velocity S-wave (km/s) = 3.02385 3.47868 3.25921
# Velocity P-wave (km/s) = 6.21916 7.27281 6.76653
#
# Compressibility (1/GPa) = 0.02119921
#
# Stress axis : x y z
#
# Youngs Moduli (GPa) = 35.04680 35.04680 30.54086
#
# Poissons Ratio (x) = 0.70849 0.21515
# Poissons Ratio (y) = 0.70849 0.21515
# Poissons Ratio (z) = 0.24690 0.24690
#
# Static dielectric constant tensor:
#      x y z
#    x 1.598210 0.000000 0.000000 
#    y 0.000000 1.598210 0.000000 
#    z 0.000000 0.000000 1.608470 
# 
# From -- ./inp_files/4918.got.cif
#   From: 2010.05.17/outbox.cif.g08.bks.cpg/sg105_3_cif.got.tgz:4918.got - 2010.05.20 10:41:19.
