data_PCOD9553414
_publ_section_title
;
Structure prediction by ZEFSAII (Michael W. Deem and Ramdas Pophale) SiO2 
 PCOD9553414
Probable space group: P 42 M C
;
_chemical_formula_sum "Si O2"
_cell_formula_units_Z 24
_cell_length_a 14.002814
_cell_length_b 14.002814
_cell_length_c 4.834576
_cell_angle_alpha 90.000000
_cell_angle_beta 90.000000
_cell_angle_gamma 90.000000
_cell_volume 947.957860
_symmetry_space_group_name_H-M "P 42 M C"
_symmetry_group_IT_number 105
_symmetry_cell_setting 'tetragonal'
loop_
_space_group_symop_operation_xyz
x,y,z
-y,x,1/2+z
-x,-y,z
y,-x,1/2+z
-x,y,z
x,-y,z
-y,-x,1/2+z
y,x,1/2+z
loop_
_atom_site_type_symbol
_atom_site_label
_atom_site_fract_x
_atom_site_fract_y
_atom_site_fract_z
Si Si1 0.108906 0.200627 0.194600
Si Si2 0.700627 0.391094 0.531614
Si Si3 0.392861 0.892861 0.363107
O O1 0.138515 0.180603 0.507467
O O2 0.115101 0.308360 0.084649
O O3 0.000000 0.168649 0.151006
O O4 0.668649 0.500000 0.575210
O O5 0.638515 0.319398 0.718747
O O6 0.808360 0.384899 0.641566
O O7 0.500000 0.885071 0.486794
O O8 0.385071 0.000000 0.239419
#
# Coordination Sequence:
#
# PCOD9553414 Si02
#       3
#     8   8   8
#     4  11  23  40  63  90 122 159 199 246 298 355
#     4  11  23  40  63  90 122 159 199 246 298 355
#     4   9  20  40  64  90 120 157 202 250 300 353
#
# _framework density 25.317581000000001
#
# number of rings (size 3 to 8) (size 9 to 14) (size 15 to 20)
#    0.000    1.667    0.000    4.000    0.000    4.000 
#    0.000   10.000    0.000   24.000    0.000    0.000 
#    0.000    0.000    0.000    0.000    0.000    0.000 
#
# Total GULP energy -134639.397238 kJ/mol
# GULP energy per Si atom -5609.974885 kJ/mol
# Density = 2.525996 g / cm^3
# Si number density = 25.317581 Si / 1000 Ang^3
#
#
#
# Elastic Constant Matrix: (Units=GPa)
#
#
# Indices 1 2 3 4 5 6 
#
# 1 143.1122 30.1405 0.0685 0.0000 0.0000 0.0000
# 2 30.1405 143.1122 0.0685 0.0000 0.0000 0.0000
# 3 0.0685 0.0685 61.7932 0.0000 0.0000 0.0000
# 4 0.0000 0.0000 0.0000 13.0758 0.0000 0.0000
# 5 0.0000 0.0000 0.0000 0.0000 13.0758 0.0000
# 6 0.0000 0.0000 0.0000 0.0000 0.0000 27.6846
#
#
#
# Elastic Compliance Matrix: (Units=1/GPa)
#
#
# Indices 1 2 3 4 5 6 
#
# 1 0.007312 -0.001540 -0.000006 0.000000 0.000000 0.000000
# 2 -0.001540 0.007312 -0.000006 0.000000 0.000000 0.000000
# 3 -0.000006 -0.000006 0.016183 0.000000 0.000000 0.000000
# 4 0.000000 0.000000 0.000000 0.076477 0.000000 0.000000
# 5 0.000000 0.000000 0.000000 0.000000 0.076477 0.000000
# 6 0.000000 0.000000 0.000000 0.000000 0.000000 0.036121
#
#
# Mechanical properties :
#
#
# Convention : Reuss Voigt Hill
#
# Bulk Modulus (GPa) = 36.09942 45.39694 40.74818
# Shear Modulus (GPa) = 21.53119 31.94991 26.74055
#
# Velocity S-wave (km/s) = 2.91940 3.55627 3.25346
# Velocity P-wave (km/s) = 5.06492 5.90192 5.49937
#
# Compressibility (1/GPa) = 0.02770128
#
# Stress axis : x y z
#
# Youngs Moduli (GPa) = 136.76431 136.76431 61.79312
#
# Poissons Ratio (x) = 0.21061 0.00040
# Poissons Ratio (y) = 0.21061 0.00040
# Poissons Ratio (z) = 0.00088 0.00088
#
# Static dielectric constant tensor:
#      x y z
#    x 1.979190 0.000000 0.000000 
#    y 0.000000 1.979190 0.000000 
#    z 0.000000 0.000000 1.902510 
# 
# From -- ./inp_files/76.got.cif
#   From: 2010.05.17/outbox.cif.g08.bks.cpg/sg105_1_cif.got.tgz:76.got - 2010.05.20 10:41:19.
