data_PCOD9553712
_publ_section_title
;
Structure prediction by ZEFSAII (Michael W. Deem and Ramdas Pophale) SiO2 
 PCOD9553712
Probable space group: I 4 M M
;
_chemical_formula_sum "Si O2"
_cell_formula_units_Z 128
_cell_length_a 19.013056
_cell_length_b 19.013056
_cell_length_c 22.822852
_cell_angle_alpha 90.000000
_cell_angle_beta 90.000000
_cell_angle_gamma 90.000000
_cell_volume 8250.376518
_symmetry_space_group_name_H-M "I 4 M M"
_symmetry_group_IT_number 107
_symmetry_cell_setting 'tetragonal'
loop_
_space_group_symop_operation_xyz
x,y,z
-y,x,z
-x,-y,z
y,-x,z
-x,y,z
x,-y,z
-y,-x,z
y,x,z
1/2+x,1/2+y,1/2+z
1/2-y,1/2+x,1/2+z
1/2-x,1/2-y,1/2+z
1/2+y,1/2-x,1/2+z
1/2-x,1/2+y,1/2+z
1/2+x,1/2-y,1/2+z
1/2-y,1/2-x,1/2+z
1/2+y,1/2+x,1/2+z
loop_
_atom_site_type_symbol
_atom_site_label
_atom_site_fract_x
_atom_site_fract_y
_atom_site_fract_z
Si Si1 0.915984 0.418003 0.168480
Si Si2 0.340309 0.223693 0.959966
Si Si3 0.298573 0.415682 0.852621
Si Si4 0.578549 0.305065 0.317290
Si Si5 0.156161 0.415697 0.787693
Si Si6 0.835156 0.580541 0.390743
Si Si7 0.696517 0.580002 0.184771
Si Si8 0.417570 0.195789 0.078864
O O1 0.896370 0.500000 0.181026
O O2 0.893782 0.369588 0.223194
O O3 0.879520 0.398952 0.107162
O O4 0.000000 0.414651 0.163723
O O5 0.266562 0.266562 0.957313
O O6 0.391915 0.265261 0.915080
O O7 0.337964 0.142963 0.938018
O O8 0.371289 0.221555 0.025072
O O9 0.311126 0.500000 0.851191
O O10 0.367752 0.367752 0.842880
O O11 0.236227 0.397252 0.806164
O O12 0.500000 0.335843 0.319056
O O13 0.636751 0.363250 0.328000
O O14 0.582361 0.242476 0.363046
O O15 0.588988 0.275847 0.251189
O O16 0.151763 0.500000 0.789850
O O17 0.104580 0.385282 0.837297
O O18 0.850600 0.500000 0.409413
O O19 0.671061 0.500000 0.180031
O O20 0.633602 0.633602 0.176993
O O21 0.753405 0.590511 0.134681
O O22 0.500000 0.195072 0.061284
#
# Coordination Sequence:
#
# PCOD9553712 Si02
#       8
#    16  16  16  16  16  16  16  16
#     4   9  17  29  46  67  91 119 147 177 216 263
#     4  10  20  33  47  63  87 120 154 188 227 270
#     4   9  18  32  49  69  92 119 152 190 231 271
#     4   9  17  29  45  66  91 116 143 176 214 257
#     4   9  17  30  47  68  94 120 145 176 218 270
#     4  10  19  30  46  67  89 115 147 183 221 262
#     4   9  17  28  43  63  86 112 140 171 207 247
#     4  10  19  31  46  63  85 114 148 184 219 256
#
# _framework density 15.514443999999999
#
# number of rings (size 3 to 8) (size 9 to 14) (size 15 to 20)
#    0.000    2.625    0.000    2.250    0.000    4.625 
#    0.000    2.500    0.000    0.000    0.000    1.750 
#    0.000    0.000    0.000    0.000    0.000    3.375 
#
# Total GULP energy -356448.022952 kJ/mol
# GULP energy per Si atom -5569.500359 kJ/mol
# Density = 1.547913 g / cm^3
# Si number density = 15.514444 Si / 1000 Ang^3
#
#
#
# Elastic Constant Matrix: (Units=GPa)
#
#
# Indices 1 2 3 4 5 6 
#
# 1 55.3632 32.9716 7.8091 0.0000 0.0000 0.0031
# 2 32.9716 55.3631 7.8091 0.0000 0.0000 -0.0031
# 3 7.8091 7.8091 26.2061 0.0000 0.0000 0.0000
# 4 0.0000 0.0000 0.0000 19.7029 0.0000 0.0000
# 5 0.0000 0.0000 0.0000 0.0000 19.7029 0.0000
# 6 0.0031 -0.0031 0.0000 0.0000 0.0000 36.0391
#
#
#
# Elastic Compliance Matrix: (Units=1/GPa)
#
#
# Indices 1 2 3 4 5 6 
#
# 1 0.028305 -0.016355 -0.003561 0.000000 0.000000 -0.000004
# 2 -0.016355 0.028305 -0.003561 0.000000 0.000000 0.000004
# 3 -0.003561 -0.003561 0.040281 0.000000 0.000000 0.000000
# 4 0.000000 0.000000 0.000000 0.050754 0.000000 0.000000
# 5 0.000000 0.000000 0.000000 0.000000 0.050754 0.000000
# 6 -0.000004 0.000004 0.000000 0.000000 0.000000 0.027748
#
#
# Mechanical properties :
#
#
# Convention : Reuss Voigt Hill
#
# Bulk Modulus (GPa) = 20.02498 26.01245 23.01871
# Shear Modulus (GPa) = 17.25650 20.97850 19.11750
#
# Velocity S-wave (km/s) = 3.33871 3.68121 3.51413
# Velocity P-wave (km/s) = 5.27238 5.90520 5.59774
#
# Compressibility (1/GPa) = 0.04993763
#
# Stress axis : x y z
#
# Youngs Moduli (GPa) = 35.32957 35.32957 24.82539
#
# Poissons Ratio (x) = 0.57780 0.08840
# Poissons Ratio (y) = 0.57780 0.08840
# Poissons Ratio (z) = 0.12581 0.12581
#
# Static dielectric constant tensor:
#      x y z
#    x 1.520590 0.000000 0.000000 
#    y 0.000000 1.520590 0.000000 
#    z 0.000000 0.000000 1.507630 
# 
# From -- ./inp_files/5466.got.cif
#   From: 2010.05.17/outbox.cif.g08.bks.cpg/sg107_3_cif.got.tgz:5466.got - 2010.05.20 10:45:06.
