data_PCOD9553929
_publ_section_title
;
Structure prediction by ZEFSAII (Michael W. Deem and Ramdas Pophale) SiO2 
 PCOD9553929
Probable space group: I 4 C M
;
_chemical_formula_sum "Si O2"
_cell_formula_units_Z 92
_cell_length_a 14.952925
_cell_length_b 14.952925
_cell_length_c 19.661297
_cell_angle_alpha 90.000000
_cell_angle_beta 90.000000
_cell_angle_gamma 90.000000
_cell_volume 4396.068729
_symmetry_space_group_name_H-M "I 4 C M"
_symmetry_group_IT_number 108
_symmetry_cell_setting 'tetragonal'
loop_
_space_group_symop_operation_xyz
x,y,z
-y,x,z
-x,-y,z
y,-x,z
-x,y,1/2+z
x,-y,1/2+z
-y,-x,1/2+z
y,x,1/2+z
1/2+x,1/2+y,1/2+z
1/2-y,1/2+x,1/2+z
1/2-x,1/2-y,1/2+z
1/2+y,1/2-x,1/2+z
1/2-x,1/2+y,z
1/2+x,1/2-y,z
1/2-y,1/2-x,z
1/2+y,1/2+x,z
loop_
_atom_site_type_symbol
_atom_site_label
_atom_site_fract_x
_atom_site_fract_y
_atom_site_fract_z
Si Si1 0.145175 0.031197 0.916040
Si Si2 0.773266 0.995262 0.771297
Si Si3 0.079234 0.722851 0.031184
Si Si4 0.262489 0.762489 0.613882
Si Si5 0.146394 0.004298 0.125212
Si Si6 0.363335 0.863335 0.198281
Si Si7 0.500000 0.000000 0.687602
Si Si8 0.642285 0.857716 0.244360
O O1 0.172678 0.033446 0.837137
O O2 0.066233 0.102278 0.930497
O O3 0.233131 0.051149 0.960671
O O4 0.701608 0.921360 0.746560
O O5 0.834073 0.008657 0.705253
O O6 0.720193 0.088671 0.782492
O O7 0.121373 0.621373 0.029182
O O8 0.164225 0.775279 0.062655
O O9 0.006696 0.758105 0.086066
O O10 0.196062 0.696062 0.648851
O O11 0.315555 0.815555 0.674915
O O12 0.080844 0.086437 0.109419
O O13 0.429733 0.929733 0.156999
O O14 0.432627 0.932627 0.726793
#
# Coordination Sequence:
#
# PCOD9553929 Si02
#       8
#    16  16  16   8  16   8   4   8
#     4  11  25  43  61  90 130 177 221 265 331 402
#     4  11  22  39  64  96 132 171 216 276 321 401
#     4  10  22  40  63  90 128 166 215 265 322 393
#     4  10  20  37  62 102 123 160 217 282 321 391
#     4  11  21  36  63  96 129 167 207 266 332 388
#     4  10  22  35  65  92 135 169 216 260 348 374
#     4   8  20  40  54  88 132 176 188 262 320 422
#     4  10  20  40  62  96 131 161 213 267 342 376
#
# _framework density 20.927788
#
# number of rings (size 3 to 8) (size 9 to 14) (size 15 to 20)
#    0.522    1.043    1.739    3.130    3.652    2.783 
#    1.565    0.000    0.000    1.043    0.000    0.000 
#    0.000    0.000    0.000    0.000    0.000    0.000 
#
# Total GULP energy -256139.180061 kJ/mol
# GULP energy per Si atom -5568.243045 kJ/mol
# Density = 2.088016 g / cm^3
# Si number density = 20.927788 Si / 1000 Ang^3
#
#
#
# Elastic Constant Matrix: (Units=GPa)
#
#
# Indices 1 2 3 4 5 6 
#
# 1 68.6565 29.4692 12.8934 0.0000 0.0000 -0.0001
# 2 29.4692 68.6565 12.8934 0.0000 0.0000 0.0001
# 3 12.8934 12.8934 83.5349 0.0000 0.0000 0.0000
# 4 0.0000 0.0000 0.0000 28.1128 0.0000 0.0000
# 5 0.0000 0.0000 0.0000 0.0000 28.1128 0.0000
# 6 -0.0001 0.0001 0.0000 0.0000 0.0000 63.8361
#
#
#
# Elastic Compliance Matrix: (Units=1/GPa)
#
#
# Indices 1 2 3 4 5 6 
#
# 1 0.018070 -0.007448 -0.001639 0.000000 0.000000 0.000000
# 2 -0.007448 0.018070 -0.001639 0.000000 0.000000 0.000000
# 3 -0.001639 -0.001639 0.012477 0.000000 0.000000 0.000000
# 4 0.000000 0.000000 0.000000 0.035571 0.000000 0.000000
# 5 0.000000 0.000000 0.000000 0.000000 0.035571 0.000000
# 6 0.000000 0.000000 0.000000 0.000000 0.000000 0.015665
#
#
# Mechanical properties :
#
#
# Convention : Reuss Voigt Hill
#
# Bulk Modulus (GPa) = 36.81476 36.81776 36.81626
# Shear Modulus (GPa) = 30.13257 35.05180 32.59219
#
# Velocity S-wave (km/s) = 3.79863 4.09699 3.95063
# Velocity P-wave (km/s) = 6.07199 6.32545 6.20001
#
# Compressibility (1/GPa) = 0.02716302
#
# Stress axis : x y z
#
# Youngs Moduli (GPa) = 55.33978 55.33978 80.14661
#
# Poissons Ratio (x) = 0.41219 0.13140
# Poissons Ratio (y) = 0.41219 0.13140
# Poissons Ratio (z) = 0.09073 0.09073
#
# Static dielectric constant tensor:
#      x y z
#    x 1.740700 0.000000 0.000000 
#    y 0.000000 1.740700 0.000000 
#    z 0.000000 0.000000 1.742620 
# 
# From -- ./inp_files/2953.got.cif
#   From: 2010.05.17/outbox.cif.g08.bks.cpg/sg108_2_cif.got.tgz:2953.got - 2010.05.20 10:49:05.
