data_PCOD9553028
_publ_section_title
;
Structure prediction by ZEFSAII (Michael W. Deem and Ramdas Pophale) SiO2 
 PCOD9553028
Probable space group: P 4 N C 
;
_chemical_formula_sum "Si O2"
_cell_formula_units_Z 56
_cell_length_a 14.897400
_cell_length_b 14.897400
_cell_length_c 11.456188
_cell_angle_alpha 90.000000
_cell_angle_beta 90.000000
_cell_angle_gamma 90.000000
_cell_volume 2542.500750
_symmetry_space_group_name_H-M "P 4 N C "
_symmetry_group_IT_number 104
_symmetry_cell_setting 'tetragonal'
loop_
_space_group_symop_operation_xyz
x,y,z
-y,x,z
-x,-y,z
y,-x,z
1/2-x,1/2+y,1/2+z
1/2+x,1/2-y,1/2+z
1/2-y,1/2-x,1/2+z
1/2+y,1/2+x,1/2+z
loop_
_atom_site_type_symbol
_atom_site_label
_atom_site_fract_x
_atom_site_fract_y
_atom_site_fract_z
Si Si1 0.853464 0.684743 0.889550
Si Si2 0.813643 0.286271 0.512553
Si Si3 0.707421 0.997668 0.374995
Si Si4 0.997088 0.143315 0.190970
Si Si5 0.537653 0.361357 0.039688
Si Si6 0.333510 0.658808 0.232021
Si Si7 0.461324 0.281103 0.455745
O O1 0.771099 0.724469 0.970352
O O2 0.864854 0.577835 0.870363
O O3 0.828576 0.737931 0.771225
O O4 0.950137 0.724703 0.925133
O O5 0.852383 0.240725 0.630161
O O6 0.773771 0.385250 0.526312
O O7 0.895528 0.301880 0.420190
O O8 0.770524 0.043841 0.472648
O O9 0.761891 0.996905 0.254706
O O10 0.085118 0.088659 0.228569
O O11 0.995407 0.148527 0.051291
O O12 0.603463 0.440587 0.004425
O O13 0.353605 0.432162 0.174145
O O14 0.316614 0.593131 0.341805
#
# Coordination Sequence:
#
# PCOD9553028 Si02
#       7
#     8   8   8   8   8   8   8
#     4  11  25  43  72 103 142 193 239 286 363 428
#     4  11  25  46  72 100 145 184 239 301 354 422
#     4  12  24  42  70 104 140 188 242 293 357 428
#     4  11  24  42  67 101 143 185 236 299 372 440
#     4  11  20  35  64 102 138 173 231 301 357 416
#     4  11  23  44  70 105 142 187 240 301 363 424
#     4  11  27  45  70 102 143 194 239 290 366 437
#
# _framework density 22.025559000000001
#
# number of rings (size 3 to 8) (size 9 to 14) (size 15 to 20)
#    0.000    0.857    2.857    4.286    8.000    1.714 
#    0.000    1.429    0.000    0.000    0.000    0.000 
#    0.000    0.000    0.000    0.000    0.000    0.000 
#
# Total GULP energy -312007.650772 kJ/mol
# GULP energy per Si atom -5571.565192 kJ/mol
# Density = 2.197543 g / cm^3
# Si number density = 22.025559 Si / 1000 Ang^3
#
#
#
# Elastic Constant Matrix: (Units=GPa)
#
#
# Indices 1 2 3 4 5 6 
#
# 1 79.1885 -17.6706 -1.4328 0.0000 0.0000 0.0000
# 2 -17.6706 79.1885 -1.4328 0.0000 0.0000 0.0000
# 3 -1.4328 -1.4328 72.4493 0.0000 0.0000 0.0000
# 4 0.0000 0.0000 0.0000 37.8204 0.0000 0.0000
# 5 0.0000 0.0000 0.0000 0.0000 37.8204 0.0000
# 6 0.0000 0.0000 0.0000 0.0000 0.0000 14.4211
#
#
#
# Elastic Compliance Matrix: (Units=1/GPa)
#
#
# Indices 1 2 3 4 5 6 
#
# 1 0.013297 0.002973 0.000322 0.000000 0.000000 0.000000
# 2 0.002973 0.013297 0.000322 0.000000 0.000000 0.000000
# 3 0.000322 0.000322 0.013815 0.000000 0.000000 0.000000
# 4 0.000000 0.000000 0.000000 0.026441 0.000000 0.000000
# 5 0.000000 0.000000 0.000000 0.000000 0.026441 0.000000
# 6 0.000000 0.000000 0.000000 0.000000 0.000000 0.069343
#
#
# Mechanical properties :
#
#
# Convention : Reuss Voigt Hill
#
# Bulk Modulus (GPa) = 20.98927 21.08378 21.03653
# Shear Modulus (GPa) = 29.19157 34.76989 31.98073
#
# Velocity S-wave (km/s) = 3.64449 3.97749 3.81462
# Velocity P-wave (km/s) = 5.22110 5.53959 5.38270
#
# Compressibility (1/GPa) = 0.04764338
#
# Stress axis : x y z
#
# Youngs Moduli (GPa) = 75.20298 75.20298 72.38261
#
# Poissons Ratio (x) = -0.22358 -0.02329
# Poissons Ratio (y) = -0.22358 -0.02329
# Poissons Ratio (z) = -0.02420 -0.02420
#
# Static dielectric constant tensor:
#      x y z
#    x 1.631390 0.000000 0.000000 
#    y 0.000000 1.631390 0.000000 
#    z 0.000000 0.000000 1.873560 
# 
# From -- ./inp_files/1289.got.cif
#   From: 2010.05.17/outbox.cif.g08.bks.cpg/sg104_cif.got.tgz:1289.got - 2010.05.20 10:39:45.
