data_PCOD9553074
_publ_section_title
;
Structure prediction by ZEFSAII (Michael W. Deem and Ramdas Pophale) SiO2 
 PCOD9553074
Probable space group: P 4 N C 
;
_chemical_formula_sum "Si O2"
_cell_formula_units_Z 42
_cell_length_a 8.725078
_cell_length_b 8.725078
_cell_length_c 26.204342
_cell_angle_alpha 90.000000
_cell_angle_beta 90.000000
_cell_angle_gamma 90.000000
_cell_volume 1994.857579
_symmetry_space_group_name_H-M "P 4 N C "
_symmetry_group_IT_number 104
_symmetry_cell_setting 'tetragonal'
loop_
_space_group_symop_operation_xyz
x,y,z
-y,x,z
-x,-y,z
y,-x,z
1/2-x,1/2+y,1/2+z
1/2+x,1/2-y,1/2+z
1/2-y,1/2-x,1/2+z
1/2+y,1/2+x,1/2+z
loop_
_atom_site_type_symbol
_atom_site_label
_atom_site_fract_x
_atom_site_fract_y
_atom_site_fract_z
Si Si1 0.406621 0.157921 0.054610
Si Si2 0.500000 0.500000 0.035335
Si Si3 0.256198 0.584501 0.871824
Si Si4 0.762145 0.896891 0.667651
Si Si5 0.408162 0.257673 0.757712
Si Si6 0.231876 0.097079 0.955092
O O1 0.501468 0.310040 0.038157
O O2 0.359390 0.188942 0.112950
O O3 0.500000 0.000000 0.053765
O O4 0.275485 0.130144 0.013255
O O5 0.313782 0.410682 0.875774
O O6 0.192347 0.611791 0.814913
O O7 0.149308 0.633500 0.917705
O O8 0.651350 0.851900 0.713623
O O9 0.923763 0.806578 0.670008
O O10 0.584701 0.310125 0.753370
O O11 0.078604 0.192742 0.944651
#
# Coordination Sequence:
#
# PCOD9553074 Si02
#       6
#     8   2   8   8   8   8
#     4  12  26  44  70  99 136 183 231 287 360 423
#     4  12  24  48  68 100 144 176 240 292 336 442
#     4   9  21  41  68  96 130 178 230 279 340 417
#     4  11  24  42  64  97 132 173 227 281 341 413
#     4   9  21  41  64  98 136 177 226 279 342 415
#     4  11  27  44  62  97 136 172 227 290 354 423
#
# _framework density 21.054137000000001
#
# number of rings (size 3 to 8) (size 9 to 14) (size 15 to 20)
#    0.000    1.524    1.905    2.286    8.000    1.524 
#    0.000    7.619    0.000    0.000    0.000    0.000 
#    0.000    0.000    0.000    0.000    0.000    0.000 
#
# Total GULP energy -234359.735985 kJ/mol
# GULP energy per Si atom -5579.993714 kJ/mol
# Density = 2.100622 g / cm^3
# Si number density = 21.054137 Si / 1000 Ang^3
#
#
#
# Elastic Constant Matrix: (Units=GPa)
#
#
# Indices 1 2 3 4 5 6 
#
# 1 53.9837 28.6544 19.7477 0.0000 0.0000 0.0000
# 2 28.6544 53.9837 19.7477 0.0000 0.0000 0.0000
# 3 19.7477 19.7477 56.4961 0.0000 0.0000 0.0000
# 4 0.0000 0.0000 0.0000 44.0655 0.0000 0.0000
# 5 0.0000 0.0000 0.0000 0.0000 44.0655 0.0000
# 6 0.0000 0.0000 0.0000 0.0000 0.0000 26.4957
#
#
#
# Elastic Compliance Matrix: (Units=1/GPa)
#
#
# Indices 1 2 3 4 5 6 
#
# 1 0.027004 -0.012476 -0.005078 0.000000 0.000000 0.000000
# 2 -0.012476 0.027004 -0.005078 0.000000 0.000000 0.000000
# 3 -0.005078 -0.005078 0.021250 0.000000 0.000000 0.000000
# 4 0.000000 0.000000 0.000000 0.022693 0.000000 0.000000
# 5 0.000000 0.000000 0.000000 0.000000 0.022693 0.000000
# 6 0.000000 0.000000 0.000000 0.000000 0.000000 0.037742
#
#
# Mechanical properties :
#
#
# Convention : Reuss Voigt Hill
#
# Bulk Modulus (GPa) = 33.34024 33.41814 33.37919
# Shear Modulus (GPa) = 23.40281 29.34625 26.37453
#
# Velocity S-wave (km/s) = 3.33761 3.73748 3.54319
# Velocity P-wave (km/s) = 5.54281 5.87639 5.71203
#
# Compressibility (1/GPa) = 0.02999378
#
# Stress axis : x y z
#
# Youngs Moduli (GPa) = 37.03162 37.03162 47.05807
#
# Poissons Ratio (x) = 0.46201 0.23897
# Poissons Ratio (y) = 0.46201 0.23897
# Poissons Ratio (z) = 0.18805 0.18805
#
# Static dielectric constant tensor:
#      x y z
#    x 1.748060 0.000000 0.000000 
#    y 0.000000 1.748060 0.000000 
#    z 0.000000 0.000000 1.750110 
# 
# From -- ./inp_files/1851.got.cif
#   From: 2010.05.17/outbox.cif.g08.bks.cpg/sg104_cif.got.tgz:1851.got - 2010.05.20 10:39:45.
