data_PCOD9553708
_publ_section_title
;
Structure prediction by ZEFSAII (Michael W. Deem and Ramdas Pophale) SiO2 
 PCOD9553708
Probable space group: I 4 M M
;
_chemical_formula_sum "Si O2"
_cell_formula_units_Z 112
_cell_length_a 13.990759
_cell_length_b 13.990759
_cell_length_c 35.954260
_cell_angle_alpha 90.000000
_cell_angle_beta 90.000000
_cell_angle_gamma 90.000000
_cell_volume 7037.734937
_symmetry_space_group_name_H-M "I 4 M M"
_symmetry_group_IT_number 107
_symmetry_cell_setting 'tetragonal'
loop_
_space_group_symop_operation_xyz
x,y,z
-y,x,z
-x,-y,z
y,-x,z
-x,y,z
x,-y,z
-y,-x,z
y,x,z
1/2+x,1/2+y,1/2+z
1/2-y,1/2+x,1/2+z
1/2-x,1/2-y,1/2+z
1/2+y,1/2-x,1/2+z
1/2-x,1/2+y,1/2+z
1/2+x,1/2-y,1/2+z
1/2-y,1/2-x,1/2+z
1/2+y,1/2+x,1/2+z
loop_
_atom_site_type_symbol
_atom_site_label
_atom_site_fract_x
_atom_site_fract_y
_atom_site_fract_z
Si Si1 0.231582 0.611423 0.243410
Si Si2 0.885891 0.270564 0.950663
Si Si3 0.769152 0.611892 0.155525
Si Si4 0.115813 0.390960 0.023108
Si Si5 0.614036 0.228445 0.596757
Si Si6 0.111699 0.387558 0.875854
Si Si7 0.112978 0.270333 0.301252
O O1 0.242249 0.500000 0.252472
O O2 0.328871 0.671130 0.249920
O O3 0.208925 0.619562 0.199508
O O4 0.151669 0.660970 0.268670
O O5 0.826509 0.173492 0.952420
O O6 0.866488 0.324486 0.911886
O O7 0.000000 0.254528 0.953236
O O8 0.856411 0.338056 0.985126
O O9 0.760116 0.500000 0.146293
O O10 0.671457 0.671457 0.148987
O O11 0.849447 0.663222 0.130831
O O12 0.151391 0.500000 0.025267
O O13 0.141105 0.328371 0.059055
O O14 0.000000 0.395649 0.022758
O O15 0.500000 0.241995 0.597646
O O16 0.672950 0.327051 0.597936
O O17 0.122159 0.500000 0.885284
O O18 0.177412 0.366617 0.840496
O O19 0.000000 0.372365 0.865947
O O20 0.173115 0.173115 0.299256
O O21 0.000000 0.255598 0.298174
#
# Coordination Sequence:
#
# PCOD9553708 Si02
#       7
#    16  16  16  16  16  16  16
#     4   9  18  32  50  73  99 125 155 192 235 285
#     4  10  19  30  45  66  94 126 157 189 226 272
#     4   9  18  32  50  73  99 126 157 194 237 284
#     4   9  17  30  48  68  89 115 150 192 235 275
#     4  10  20  33  49  70  97 128 162 199 238 282
#     4   9  17  30  49  71  92 116 150 193 240 285
#     4  10  20  33  49  69  94 124 159 199 240 283
#
# _framework density 15.914211
#
# number of rings (size 3 to 8) (size 9 to 14) (size 15 to 20)
#    0.000    2.571    0.000    2.143    0.000    4.714 
#    0.000    2.857    0.000    2.571    0.000    6.000 
#    0.000   11.714    0.000    0.000    0.000    0.000 
#
# Total GULP energy -312158.861242 kJ/mol
# GULP energy per Si atom -5574.265379 kJ/mol
# Density = 1.587799 g / cm^3
# Si number density = 15.914211 Si / 1000 Ang^3
#
#
#
# Elastic Constant Matrix: (Units=GPa)
#
#
# Indices 1 2 3 4 5 6 
#
# 1 105.2447 64.5119 62.0225 0.0000 0.0000 0.0000
# 2 64.5119 105.2447 62.0225 0.0000 0.0000 0.0000
# 3 62.0225 62.0225 82.3287 0.0000 0.0000 0.0000
# 4 0.0000 0.0000 0.0000 22.4709 0.0000 0.0000
# 5 0.0000 0.0000 0.0000 0.0000 22.4709 0.0000
# 6 0.0000 0.0000 0.0000 0.0000 0.0000 13.4319
#
#
#
# Elastic Compliance Matrix: (Units=1/GPa)
#
#
# Indices 1 2 3 4 5 6 
#
# 1 0.018828 -0.005723 -0.009873 0.000000 0.000000 0.000000
# 2 -0.005723 0.018828 -0.009873 0.000000 0.000000 0.000000
# 3 -0.009873 -0.009873 0.027022 0.000000 0.000000 0.000000
# 4 0.000000 0.000000 0.000000 0.044502 0.000000 0.000000
# 5 0.000000 0.000000 0.000000 0.000000 0.044502 0.000000
# 6 0.000000 0.000000 0.000000 0.000000 0.000000 0.074450
#
#
# Mechanical properties :
#
#
# Convention : Reuss Voigt Hill
#
# Bulk Modulus (GPa) = 72.77536 74.43688 73.60612
# Shear Modulus (GPa) = 17.62756 18.62548 18.12652
#
# Velocity S-wave (km/s) = 3.33177 3.42478 3.37859
# Velocity P-wave (km/s) = 7.78652 7.90659 7.84679
#
# Compressibility (1/GPa) = 0.01374091
#
# Stress axis : x y z
#
# Youngs Moduli (GPa) = 53.11349 53.11349 37.00751
#
# Poissons Ratio (x) = 0.30395 0.36536
# Poissons Ratio (y) = 0.30395 0.36536
# Poissons Ratio (z) = 0.52437 0.52437
#
# Static dielectric constant tensor:
#      x y z
#    x 1.512690 0.000000 0.000000 
#    y 0.000000 1.512690 0.000000 
#    z 0.000000 0.000000 1.529490 
# 
# From -- ./inp_files/5782.got.cif
#   From: 2010.05.17/outbox.cif.g08.bks.cpg/sg107_3_cif.got.tgz:5782.got - 2010.05.20 10:45:06.
