data_PCOD9553551
_publ_section_title
;
Structure prediction by ZEFSAII (Michael W. Deem and Ramdas Pophale) SiO2 
 PCOD9553551
Probable space group: P 42 B C
;
_chemical_formula_sum "Si O2"
_cell_formula_units_Z 56
_cell_length_a 14.460499
_cell_length_b 14.460499
_cell_length_c 10.791533
_cell_angle_alpha 90.000000
_cell_angle_beta 90.000000
_cell_angle_gamma 90.000000
_cell_volume 2256.574638
_symmetry_space_group_name_H-M "P 42 B C"
_symmetry_group_IT_number 106
_symmetry_cell_setting 'tetragonal'
loop_
_space_group_symop_operation_xyz
x,y,z
-y,x,1/2+z
-x,-y,z
y,-x,1/2+z
1/2-x,1/2+y,z
1/2+x,1/2-y,z
1/2-y,1/2-x,1/2+z
1/2+y,1/2+x,1/2+z
loop_
_atom_site_type_symbol
_atom_site_label
_atom_site_fract_x
_atom_site_fract_y
_atom_site_fract_z
Si Si1 0.468411 0.750067 0.577620
Si Si2 0.564337 0.773245 0.335763
Si Si3 0.474420 0.391827 0.750390
Si Si4 0.915996 0.451070 0.212246
Si Si5 0.018128 0.710240 0.065978
Si Si6 0.315166 0.679400 0.427066
Si Si7 0.719024 0.637718 0.390147
O O1 0.491873 0.792301 0.442716
O O2 0.531670 0.662948 0.620715
O O3 0.483781 0.833632 0.672546
O O4 0.367436 0.711101 0.552632
O O5 0.618865 0.864649 0.291705
O O6 0.523134 0.742510 0.202950
O O7 0.630059 0.702319 0.403703
O O8 0.500000 0.500000 0.740630
O O9 0.385182 0.376965 0.837224
O O10 0.557670 0.328917 0.807216
O O11 0.965560 0.397536 0.097868
O O12 0.000000 0.500000 0.280867
O O13 0.105459 0.743337 0.985562
O O14 0.922883 0.734893 0.998656
O O15 0.287501 0.775732 0.359263
#
# Coordination Sequence:
#
# PCOD9553551 Si02
#       7
#     8   8   8   8   8   8   8
#     4  12  25  44  72 106 149 202 253 313 402 466
#     4  10  24  42  67 105 148 195 250 310 387 458
#     4  11  27  48  74 114 159 206 266 328 395 478
#     4  10  23  45  72 106 150 194 250 327 390 470
#     4   9  23  45  67 107 152 188 254 313 383 464
#     4  11  24  44  78 114 144 205 265 318 395 475
#     4  11  22  46  76 102 151 196 252 329 383 457
#
# _framework density 24.816375000000001
#
# number of rings (size 3 to 8) (size 9 to 14) (size 15 to 20)
#    0.857    0.571    0.000    4.286    0.000    8.000 
#    5.143    0.000    0.000    0.857    0.000    0.000 
#    0.000    0.000    0.000    0.000    0.000    0.000 
#
# Total GULP energy -311960.624341 kJ/mol
# GULP energy per Si atom -5570.725435 kJ/mol
# Density = 2.475989 g / cm^3
# Si number density = 24.816375 Si / 1000 Ang^3
#
#
#
# Elastic Constant Matrix: (Units=GPa)
#
#
# Indices 1 2 3 4 5 6 
#
# 1 124.8517 64.0781 44.4453 0.0000 0.0000 0.0000
# 2 64.0781 124.8517 44.4453 0.0000 0.0000 0.0000
# 3 44.4453 44.4453 77.8451 0.0000 0.0000 0.0000
# 4 0.0000 0.0000 0.0000 42.3413 0.0000 0.0000
# 5 0.0000 0.0000 0.0000 0.0000 42.3413 0.0000
# 6 0.0000 0.0000 0.0000 0.0000 0.0000 24.9853
#
#
#
# Elastic Compliance Matrix: (Units=1/GPa)
#
#
# Indices 1 2 3 4 5 6 
#
# 1 0.011846 -0.004609 -0.004132 0.000000 0.000000 0.000000
# 2 -0.004609 0.011846 -0.004132 0.000000 0.000000 0.000000
# 3 -0.004132 -0.004132 0.017564 0.000000 0.000000 0.000000
# 4 0.000000 0.000000 0.000000 0.023618 0.000000 0.000000
# 5 0.000000 0.000000 0.000000 0.000000 0.023618 0.000000
# 6 0.000000 0.000000 0.000000 0.000000 0.000000 0.040024
#
#
# Mechanical properties :
#
#
# Convention : Reuss Voigt Hill
#
# Bulk Modulus (GPa) = 64.47235 70.38733 67.42984
# Shear Modulus (GPa) = 31.36173 33.57224 32.46699
#
# Velocity S-wave (km/s) = 3.55878 3.68207 3.62095
# Velocity P-wave (km/s) = 6.55155 6.81921 6.68672
#
# Compressibility (1/GPa) = 0.01551052
#
# Stress axis : x y z
#
# Youngs Moduli (GPa) = 84.41831 84.41831 56.93375
#
# Poissons Ratio (x) = 0.38906 0.23525
# Poissons Ratio (y) = 0.38906 0.23525
# Poissons Ratio (z) = 0.34881 0.34881
#
# Static dielectric constant tensor:
#      x y z
#    x 1.993010 0.000000 0.000000 
#    y 0.000000 1.993010 0.000000 
#    z 0.000000 0.000000 2.069220 
# 
# From -- ./inp_files/1007.got.cif
#   From: 2010.05.17/outbox.cif.g08.bks.cpg/sg106_cif.got.tgz:1007.got - 2010.05.20 10:43:49.
