data_PCOD9553506
_publ_section_title
;
Structure prediction by ZEFSAII (Michael W. Deem and Ramdas Pophale) SiO2 
 PCOD9553506
Probable space group: P 42 B C
;
_chemical_formula_sum "Si O2"
_cell_formula_units_Z 36
_cell_length_a 13.195999
_cell_length_b 13.195999
_cell_length_c 9.235140
_cell_angle_alpha 90.000000
_cell_angle_beta 90.000000
_cell_angle_gamma 90.000000
_cell_volume 1608.155467
_symmetry_space_group_name_H-M "P 42 B C"
_symmetry_group_IT_number 106
_symmetry_cell_setting 'tetragonal'
loop_
_space_group_symop_operation_xyz
x,y,z
-y,x,1/2+z
-x,-y,z
y,-x,1/2+z
1/2-x,1/2+y,z
1/2+x,1/2-y,z
1/2-y,1/2-x,1/2+z
1/2+y,1/2+x,1/2+z
loop_
_atom_site_type_symbol
_atom_site_label
_atom_site_fract_x
_atom_site_fract_y
_atom_site_fract_z
Si Si1 0.871451 0.945729 0.139110
Si Si2 0.904604 0.595396 0.889110
Si Si3 0.500000 0.500000 0.889110
Si Si4 0.231955 0.462117 0.639110
Si Si5 0.430924 0.135180 0.639110
O O1 0.948851 0.850900 0.139110
O O2 0.902451 0.004362 0.284623
O O3 0.755084 0.914437 0.139110
O O4 0.902451 0.004362 0.993597
O O5 0.907544 0.689814 0.996362
O O6 0.893856 0.499946 0.999705
O O7 0.810186 0.592456 0.781858
O O8 0.000054 0.606144 0.778515
O O9 0.172393 0.569921 0.639110
#
# Coordination Sequence:
#
# PCOD9553506 Si02
#       5
#     8   8   4   8   8
#     4  11  24  44  66  96 133 185 222 277 337 409
#     4  10  21  40  68  94 136 167 216 293 330 372
#     4  10  24  46  64  82 148 182 216 286 348 378
#     4  11  21  40  62  99 132 168 219 273 332 401
#     4  11  21  40  68  99 129 175 221 278 340 386
#
# _framework density 22.385895000000001
#
# number of rings (size 3 to 8) (size 9 to 14) (size 15 to 20)
#    0.000    1.333    0.000    8.000    0.000    0.000 
#   32.000    0.000    0.000    0.000    0.000    0.000 
#    0.000    0.000    0.000    0.000    0.000    0.000 
#
# Total GULP energy -201074.372179 kJ/mol
# GULP energy per Si atom -5585.399227 kJ/mol
# Density = 2.233494 g / cm^3
# Si number density = 22.385895 Si / 1000 Ang^3
#
#
#
# Elastic Constant Matrix: (Units=GPa)
#
#
# Indices 1 2 3 4 5 6 
#
# 1 100.4354 23.7111 27.7512 0.0000 0.0000 0.0000
# 2 23.7111 100.4354 27.7512 0.0000 0.0000 0.0000
# 3 27.7512 27.7512 170.3982 0.0000 0.0000 0.0000
# 4 0.0000 0.0000 0.0000 20.7037 0.0000 0.0000
# 5 0.0000 0.0000 0.0000 0.0000 20.7037 0.0000
# 6 0.0000 0.0000 0.0000 0.0000 0.0000 13.9850
#
#
#
# Elastic Compliance Matrix: (Units=1/GPa)
#
#
# Indices 1 2 3 4 5 6 
#
# 1 0.010861 -0.002173 -0.001415 0.000000 0.000000 0.000000
# 2 -0.002173 0.010861 -0.001415 0.000000 0.000000 0.000000
# 3 -0.001415 -0.001415 0.006329 0.000000 0.000000 0.000000
# 4 0.000000 0.000000 0.000000 0.048300 0.000000 0.000000
# 5 0.000000 0.000000 0.000000 0.000000 0.048300 0.000000
# 6 0.000000 0.000000 0.000000 0.000000 0.000000 0.071505
#
#
# Mechanical properties :
#
#
# Convention : Reuss Voigt Hill
#
# Bulk Modulus (GPa) = 55.41669 58.85510 57.13590
# Shear Modulus (GPa) = 23.56516 30.54886 27.05701
#
# Velocity S-wave (km/s) = 3.24802 3.69812 3.48036
# Velocity P-wave (km/s) = 6.23499 6.67705 6.45980
#
# Compressibility (1/GPa) = 0.01804510
#
# Stress axis : x y z
#
# Youngs Moduli (GPa) = 92.07591 92.07591 157.99146
#
# Poissons Ratio (x) = 0.20009 0.22354
# Poissons Ratio (y) = 0.20009 0.22354
# Poissons Ratio (z) = 0.13027 0.13027
#
# Static dielectric constant tensor:
#      x y z
#    x 1.832140 0.000000 0.000000 
#    y 0.000000 1.832140 0.000000 
#    z 0.000000 0.000000 1.861000 
# 
# From -- ./inp_files/344.got.cif
#   From: 2010.05.17/outbox.cif.g08.bks.cpg/sg106_cif.got.tgz:344.got - 2010.05.20 10:43:49.
