data_PCOD9553736
_publ_section_title
;
Structure prediction by ZEFSAII (Michael W. Deem and Ramdas Pophale) SiO2 
 PCOD9553736
Probable space group: I 4 M M
;
_chemical_formula_sum "Si O2"
_cell_formula_units_Z 96
_cell_length_a 23.852360
_cell_length_b 23.852360
_cell_length_c 9.019750
_cell_angle_alpha 90.000000
_cell_angle_beta 90.000000
_cell_angle_gamma 90.000000
_cell_volume 5131.652166
_symmetry_space_group_name_H-M "I 4 M M"
_symmetry_group_IT_number 107
_symmetry_cell_setting 'tetragonal'
loop_
_space_group_symop_operation_xyz
x,y,z
-y,x,z
-x,-y,z
y,-x,z
-x,y,z
x,-y,z
-y,-x,z
y,x,z
1/2+x,1/2+y,1/2+z
1/2-y,1/2+x,1/2+z
1/2-x,1/2-y,1/2+z
1/2+y,1/2-x,1/2+z
1/2-x,1/2+y,1/2+z
1/2+x,1/2-y,1/2+z
1/2-y,1/2-x,1/2+z
1/2+y,1/2+x,1/2+z
loop_
_atom_site_type_symbol
_atom_site_label
_atom_site_fract_x
_atom_site_fract_y
_atom_site_fract_z
Si Si1 0.000000 0.324909 0.085160
Si Si2 0.253043 0.500000 0.072449
Si Si3 0.866552 0.500000 0.927767
Si Si4 0.286300 0.375483 0.757094
Si Si5 0.334416 0.830998 0.159909
Si Si6 0.791154 0.000000 0.226578
Si Si7 0.876598 0.396824 0.414567
Si Si8 0.123877 0.212974 0.616272
O O1 0.000000 0.345603 0.256106
O O2 0.000000 0.259067 0.108681
O O3 0.052534 0.346019 0.992753
O O4 0.185912 0.500000 0.042308
O O5 0.273933 0.500000 0.901058
O O6 0.274850 0.557747 0.147309
O O7 0.899876 0.557496 0.942263
O O8 0.326498 0.326498 0.702863
O O9 0.223836 0.361686 0.698124
O O10 0.312258 0.435962 0.711829
O O11 0.284283 0.373421 0.936428
O O12 0.385261 0.862218 0.244968
O O13 0.340262 0.764662 0.183739
O O14 0.349805 0.841556 0.989302
O O15 0.154571 0.154571 0.659197
#
# Coordination Sequence:
#
# PCOD9553736 Si02
#       8
#     8   8   8  16  16   8  16  16
#     4  11  22  39  56  80 109 146 192 233 277 324
#     4   9  16  31  55  75 106 150 182 219 271 330
#     4  11  20  38  55  77 110 146 192 233 279 323
#     4  10  19  32  55  83 111 147 184 225 281 334
#     4  12  20  37  54  84 107 140 183 229 284 327
#     4   9  16  32  54  74 109 144 182 225 267 333
#     4  12  23  36  60  77 107 147 188 233 276 327
#     4  10  20  33  54  84 114 145 183 227 279 335
#
# _framework density 18.707424
#
# number of rings (size 3 to 8) (size 9 to 14) (size 15 to 20)
#    0.000    1.333    6.667    1.500    0.000    1.667 
#    0.000    0.833    0.000    0.500    0.000    3.500 
#    0.000    0.000    0.000    0.083    0.000    1.667 
#
# Total GULP energy -267229.947754 kJ/mol
# GULP energy per Si atom -5567.290578 kJ/mol
# Density = 1.866485 g / cm^3
# Si number density = 18.707424 Si / 1000 Ang^3
#
#
#
# Elastic Constant Matrix: (Units=GPa)
#
#
# Indices 1 2 3 4 5 6 
#
# 1 78.2605 34.2834 7.3104 0.0000 0.0000 0.0000
# 2 34.2834 78.2605 7.3104 0.0000 0.0000 0.0000
# 3 7.3104 7.3104 17.0212 0.0000 0.0000 0.0000
# 4 0.0000 0.0000 0.0000 17.1225 0.0000 0.0000
# 5 0.0000 0.0000 0.0000 0.0000 17.1225 0.0000
# 6 0.0000 0.0000 0.0000 0.0000 0.0000 -25.2715
#
#
#
# Elastic Compliance Matrix: (Units=1/GPa)
#
#
# Indices 1 2 3 4 5 6 
#
# 1 0.016075 -0.006664 -0.004042 0.000000 0.000000 0.000000
# 2 -0.006664 0.016075 -0.004042 0.000000 0.000000 0.000000
# 3 -0.004042 -0.004042 0.062222 0.000000 0.000000 0.000000
# 4 0.000000 0.000000 0.000000 0.058403 0.000000 0.000000
# 5 0.000000 0.000000 0.000000 0.000000 0.058403 0.000000
# 6 0.000000 0.000000 0.000000 0.000000 0.000000 -0.039570
#
#
# Mechanical properties :
#
#
# Convention : Reuss Voigt Hill
#
# Bulk Modulus (GPa) = 15.41395 30.15005 22.78200
# Shear Modulus (GPa) = 22.44892 10.10388 16.27640
#
# Velocity S-wave (km/s) = 3.46786 2.32653 2.95286
# Velocity P-wave (km/s) = 4.92870 4.83411 4.88163
#
# Compressibility (1/GPa) = 0.06487628
#
# Stress axis : x y z
#
# Youngs Moduli (GPa) = 62.20917 62.20917 16.07148
#
# Poissons Ratio (x) = 0.41458 0.06496
# Poissons Ratio (y) = 0.41458 0.06496
# Poissons Ratio (z) = 0.25143 0.25143
#
# Static dielectric constant tensor:
#      x y z
#    x 1.677390 0.000000 0.000000 
#    y 0.000000 1.677390 0.000000 
#    z 0.000000 0.000000 1.635120 
# 
# From -- ./inp_files/1572.got.cif
#   From: 2010.05.17/outbox.cif.g08.bks.cpg/sg107_1_cif.got.tgz:1572.got - 2010.05.20 10:45:06.
