data_PCOD9553989
_publ_section_title
;
Structure prediction by ZEFSAII (Michael W. Deem and Ramdas Pophale) SiO2 
 PCOD9553989
Probable space group: I 4 C M
;
_chemical_formula_sum "Si O2"
_cell_formula_units_Z 88
_cell_length_a 11.229909
_cell_length_b 11.229909
_cell_length_c 34.059974
_cell_angle_alpha 90.000000
_cell_angle_beta 90.000000
_cell_angle_gamma 90.000000
_cell_volume 4295.332482
_symmetry_space_group_name_H-M "I 4 C M"
_symmetry_group_IT_number 108
_symmetry_cell_setting 'tetragonal'
loop_
_space_group_symop_operation_xyz
x,y,z
-y,x,z
-x,-y,z
y,-x,z
-x,y,1/2+z
x,-y,1/2+z
-y,-x,1/2+z
y,x,1/2+z
1/2+x,1/2+y,1/2+z
1/2-y,1/2+x,1/2+z
1/2-x,1/2-y,1/2+z
1/2+y,1/2-x,1/2+z
1/2-x,1/2+y,z
1/2+x,1/2-y,z
1/2-y,1/2-x,z
1/2+y,1/2+x,z
loop_
_atom_site_type_symbol
_atom_site_label
_atom_site_fract_x
_atom_site_fract_y
_atom_site_fract_z
Si Si1 0.196126 0.498474 0.534570
Si Si2 0.102258 0.602258 0.269625
Si Si3 0.802482 0.040236 0.830300
Si Si4 0.986272 0.807679 0.953269
Si Si5 0.530385 0.304661 0.620127
Si Si6 0.620702 0.879299 0.399318
Si Si7 0.600060 0.899941 0.178928
O O1 0.107464 0.392537 0.522356
O O2 0.290759 0.514744 0.500102
O O3 0.248691 0.465880 0.576757
O O4 0.117608 0.617608 0.538562
O O5 0.057545 0.721152 0.291770
O O6 0.127926 0.627926 0.224086
O O7 0.000000 0.500000 0.273150
O O8 0.711981 0.063580 0.866086
O O9 0.910317 0.136036 0.831872
O O10 0.964716 0.683079 0.932746
O O11 0.106632 0.875931 0.941727
O O12 0.631414 0.403988 0.623670
O O13 0.550158 0.209674 0.653995
O O14 0.500000 0.000000 0.179547
#
# Coordination Sequence:
#
# PCOD9553989 Si02
#       7
#    16   8  16  16  16   8   8
#     4  11  23  40  64  96 129 174 235 287 350 405
#     4  10  25  44  72 109 140 180 228 279 342 418
#     4  10  23  46  74 104 139 183 228 280 347 421
#     4  11  24  41  61  92 132 178 231 287 344 407
#     4  11  25  43  68 100 133 182 236 285 347 418
#     4  11  22  41  66  97 131 174 221 278 339 402
#     4  11  25  45  69 103 145 180 223 287 349 407
#
# _framework density 20.487355999999998
#
# number of rings (size 3 to 8) (size 9 to 14) (size 15 to 20)
#    0.000    1.273    1.818    2.727    6.364    5.818 
#    0.000    2.727    0.000    0.000    0.000    0.000 
#    0.000    0.000    0.000    0.000    0.000    0.000 
#
# Total GULP energy -245058.808423 kJ/mol
# GULP energy per Si atom -5569.518373 kJ/mol
# Density = 2.044073 g / cm^3
# Si number density = 20.487356 Si / 1000 Ang^3
#
#
#
# Elastic Constant Matrix: (Units=GPa)
#
#
# Indices 1 2 3 4 5 6 
#
# 1 61.5867 29.3757 28.4404 0.0000 0.0000 -0.0006
# 2 29.3757 61.5867 28.4404 0.0000 0.0000 0.0005
# 3 28.4404 28.4404 145.7505 0.0000 0.0000 0.0000
# 4 0.0000 0.0000 0.0000 11.8992 0.0000 0.0000
# 5 0.0000 0.0000 0.0000 0.0000 11.8992 0.0000
# 6 -0.0006 0.0005 0.0000 0.0000 0.0000 -155.2158
#
#
#
# Elastic Compliance Matrix: (Units=1/GPa)
#
#
# Indices 1 2 3 4 5 6 
#
# 1 0.021783 -0.009262 -0.002443 0.000000 0.000000 0.000000
# 2 -0.009262 0.021783 -0.002443 0.000000 0.000000 0.000000
# 3 -0.002443 -0.002443 0.007815 0.000000 0.000000 0.000000
# 4 0.000000 0.000000 0.000000 0.084039 0.000000 0.000000
# 5 0.000000 0.000000 0.000000 0.000000 0.084039 0.000000
# 6 0.000000 0.000000 0.000000 0.000000 0.000000 -0.006443
#
#
# Mechanical properties :
#
#
# Convention : Reuss Voigt Hill
#
# Bulk Modulus (GPa) = 43.31979 49.04857 46.18418
# Shear Modulus (GPa) = 20.07959 -14.10567 2.98696
#
# Velocity S-wave (km/s) = 3.13405 -2.62679 1.20877
# Velocity P-wave (km/s) = 5.85550 3.84615 4.95377
#
# Compressibility (1/GPa) = 0.02308414
#
# Stress axis : x y z
#
# Youngs Moduli (GPa) = 45.90655 45.90655 127.96604
#
# Poissons Ratio (x) = 0.42518 0.31266
# Poissons Ratio (y) = 0.42518 0.31266
# Poissons Ratio (z) = 0.11216 0.11216
#
# Static dielectric constant tensor:
#      x y z
#    x 1.741110 0.000000 0.000000 
#    y 0.000000 1.741110 0.000000 
#    z 0.000000 0.000000 1.715890 
# 
# From -- ./inp_files/3490.got.cif
#   From: 2010.05.17/outbox.cif.g08.bks.cpg/sg108_2_cif.got.tgz:3490.got - 2010.05.20 10:49:05.
