data_PCOD9553142
_publ_section_title
;
Structure prediction by ZEFSAII (Michael W. Deem and Ramdas Pophale) SiO2 
 PCOD9553142
Probable space group: P 42 M C
;
_chemical_formula_sum "Si O2"
_cell_formula_units_Z 48
_cell_length_a 7.867345
_cell_length_b 7.867345
_cell_length_c 36.350148
_cell_angle_alpha 90.000000
_cell_angle_beta 90.000000
_cell_angle_gamma 90.000000
_cell_volume 2249.896676
_symmetry_space_group_name_H-M "P 42 M C"
_symmetry_group_IT_number 105
_symmetry_cell_setting 'tetragonal'
loop_
_space_group_symop_operation_xyz
x,y,z
-y,x,1/2+z
-x,-y,z
y,-x,1/2+z
-x,y,z
x,-y,z
-y,-x,1/2+z
y,x,1/2+z
loop_
_atom_site_type_symbol
_atom_site_label
_atom_site_fract_x
_atom_site_fract_y
_atom_site_fract_z
Si Si1 0.195516 0.703552 0.902740
Si Si2 0.807317 0.202779 0.244194
Si Si3 0.500000 0.708636 0.954442
Si Si4 0.794431 0.196856 0.322436
Si Si5 0.291860 0.500000 0.539067
Si Si6 0.697247 0.305987 0.165506
Si Si7 0.292023 0.185946 0.588502
O O1 0.185222 0.500000 0.906203
O O2 0.330418 0.765093 0.932843
O O3 0.267189 0.742044 0.861858
O O4 0.000000 0.769957 0.906015
O O5 0.735458 0.270792 0.283084
O O6 0.714518 0.229910 0.205889
O O7 0.000000 0.268018 0.239408
O O8 0.816889 0.000000 0.249620
O O9 0.500000 0.500000 0.953844
O O10 0.500000 0.762426 0.996813
O O11 0.000000 0.198413 0.320538
O O12 0.735494 0.000000 0.324200
O O13 0.500000 0.500000 0.538995
O O14 0.235698 0.335012 0.561757
O O15 0.500000 0.306754 0.154777
O O16 0.756950 0.500000 0.169596
O O17 0.791812 0.228762 0.130459
O O18 0.500000 0.196858 0.590568
O O19 0.247218 0.000000 0.574563
#
# Coordination Sequence:
#
# PCOD9553142 Si02
#       7
#     8   8   4   8   4   8   8
#     4   9  17  30  48  69  95 129 161 196 254 314
#     4   9  18  32  49  70  96 127 166 210 252 297
#     4   9  18  30  45  69 101 129 159 211 259 307
#     4   8  15  30  50  69  92 124 163 205 243 286
#     4   9  16  28  44  67  97 127 163 207 259 317
#     4  10  19  31  46  68 100 132 166 208 252 303
#     4   9  16  27  45  67  94 131 168 207 257 310
#
# _framework density 21.334313000000002
#
# number of rings (size 3 to 8) (size 9 to 14) (size 15 to 20)
#    0.000    3.000    0.833    1.500    0.000    2.667 
#    1.500    5.417    0.000    0.000    0.000    2.333 
#    0.000    2.667    0.000    0.000    0.000    0.000 
#
# Total GULP energy -267515.690756 kJ/mol
# GULP energy per Si atom -5573.243557 kJ/mol
# Density = 2.128576 g / cm^3
# Si number density = 21.334313 Si / 1000 Ang^3
#
#
#
# Elastic Constant Matrix: (Units=GPa)
#
#
# Indices 1 2 3 4 5 6 
#
# 1 54.4985 12.8232 45.7842 0.0000 0.0000 0.0000
# 2 12.8232 54.4985 45.7842 0.0000 0.0000 0.0000
# 3 45.7842 45.7842 196.3055 0.0000 0.0000 0.0000
# 4 0.0000 0.0000 0.0000 14.1260 0.0000 0.0000
# 5 0.0000 0.0000 0.0000 0.0000 14.1260 0.0000
# 6 0.0000 0.0000 0.0000 0.0000 0.0000 4.4903
#
#
#
# Elastic Compliance Matrix: (Units=1/GPa)
#
#
# Indices 1 2 3 4 5 6 
#
# 1 0.022875 -0.001120 -0.005074 0.000000 0.000000 0.000000
# 2 -0.001120 0.022875 -0.005074 0.000000 0.000000 0.000000
# 3 -0.005074 -0.005074 0.007461 0.000000 0.000000 0.000000
# 4 0.000000 0.000000 0.000000 0.070791 0.000000 0.000000
# 5 0.000000 0.000000 0.000000 0.000000 0.070791 0.000000
# 6 0.000000 0.000000 0.000000 0.000000 0.000000 0.222704
#
#
# Mechanical properties :
#
#
# Convention : Reuss Voigt Hill
#
# Bulk Modulus (GPa) = 32.59889 57.12064 44.85976
# Shear Modulus (GPa) = 11.10472 19.94252 15.52362
#
# Velocity S-wave (km/s) = 2.28394 3.06071 2.70040
# Velocity P-wave (km/s) = 4.71894 6.27079 5.54938
#
# Compressibility (1/GPa) = 0.03067589
#
# Stress axis : x y z
#
# Youngs Moduli (GPa) = 43.71530 43.71530 134.03163
#
# Poissons Ratio (x) = 0.04895 0.68008
# Poissons Ratio (y) = 0.04895 0.68008
# Poissons Ratio (z) = 0.22181 0.22181
#
# Static dielectric constant tensor:
#      x y z
#    x 1.800900 0.000000 0.000000 
#    y 0.000000 1.800900 0.000000 
#    z 0.000000 0.000000 1.780420 
# 
# From -- ./inp_files/4741.got.cif
#   From: 2010.05.17/outbox.cif.g08.bks.cpg/sg105_3_cif.got.tgz:4741.got - 2010.05.20 10:41:19.
