data_PCOD9553943
_publ_section_title
;
Structure prediction by ZEFSAII (Michael W. Deem and Ramdas Pophale) SiO2 
 PCOD9553943
Probable space group: I 4 C M
;
_chemical_formula_sum "Si O2"
_cell_formula_units_Z 80
_cell_length_a 27.494316
_cell_length_b 27.494316
_cell_length_c 5.364596
_cell_angle_alpha 90.000000
_cell_angle_beta 90.000000
_cell_angle_gamma 90.000000
_cell_volume 4055.298818
_symmetry_space_group_name_H-M "I 4 C M"
_symmetry_group_IT_number 108
_symmetry_cell_setting 'tetragonal'
loop_
_space_group_symop_operation_xyz
x,y,z
-y,x,z
-x,-y,z
y,-x,z
-x,y,1/2+z
x,-y,1/2+z
-y,-x,1/2+z
y,x,1/2+z
1/2+x,1/2+y,1/2+z
1/2-y,1/2+x,1/2+z
1/2-x,1/2-y,1/2+z
1/2+y,1/2-x,1/2+z
1/2-x,1/2+y,z
1/2+x,1/2-y,z
1/2-y,1/2-x,z
1/2+y,1/2+x,z
loop_
_atom_site_type_symbol
_atom_site_label
_atom_site_fract_x
_atom_site_fract_y
_atom_site_fract_z
Si Si1 0.321371 0.283982 0.952070
Si Si2 0.471023 0.824507 0.931802
Si Si3 0.468679 0.710483 0.957141
Si Si4 0.870186 0.629815 0.044944
Si Si5 0.327444 0.172557 0.045356
Si Si6 0.388482 0.629979 0.954139
O O1 0.296917 0.285996 0.681482
O O2 0.339080 0.229760 0.003735
O O3 0.358804 0.329845 0.953514
O O4 0.489333 0.832131 0.650072
O O5 0.456340 0.767679 0.954247
O O6 0.425857 0.857723 0.997577
O O7 0.500647 0.700529 0.709191
O O8 0.419846 0.678920 0.954067
O O9 0.841434 0.658567 0.826079
O O10 0.855238 0.644763 0.324240
O O11 0.398654 0.601393 0.704055
#
# Coordination Sequence:
#
# PCOD9553943 Si02
#       6
#    16  16  16   8   8  16
#     4  10  21  35  49  75 122 170 198 244 268 346
#     4  10  23  43  64  87 119 157 202 259 309 361
#     4  10  21  38  59  82 117 163 210 249 295 350
#     4  12  26  39  68  93 116 162 209 256 301 386
#     4  12  24  35  56  90 128 163 209 230 287 357
#     4  10  21  33  55  82 116 159 200 244 295 342
#
# _framework density 19.727276
#
# number of rings (size 3 to 8) (size 9 to 14) (size 15 to 20)
#    0.000    1.600    0.000    4.200   11.200    0.000 
#    0.000    0.000    0.000    1.800    0.000    0.000 
#    0.000   28.000    0.000    0.000    0.000    0.000 
#
# Total GULP energy -223332.420627 kJ/mol
# GULP energy per Si atom -5583.310516 kJ/mol
# Density = 1.968238 g / cm^3
# Si number density = 19.727276 Si / 1000 Ang^3
#
#
#
# Elastic Constant Matrix: (Units=GPa)
#
#
# Indices 1 2 3 4 5 6 
#
# 1 40.6761 26.7389 4.1839 0.0000 0.0000 0.0014
# 2 26.7389 40.6761 4.1839 0.0000 0.0000 -0.0014
# 3 4.1839 4.1839 120.7308 0.0000 0.0000 0.0000
# 4 0.0000 0.0000 0.0000 13.8375 0.0000 0.0000
# 5 0.0000 0.0000 0.0000 0.0000 13.8375 0.0000
# 6 0.0014 -0.0014 0.0000 0.0000 0.0000 27.5767
#
#
#
# Elastic Compliance Matrix: (Units=1/GPa)
#
#
# Indices 1 2 3 4 5 6 
#
# 1 0.043324 -0.028426 -0.000516 0.000000 0.000000 -0.000004
# 2 -0.028426 0.043324 -0.000516 0.000000 0.000000 0.000004
# 3 -0.000516 -0.000516 0.008319 0.000000 0.000000 0.000000
# 4 0.000000 0.000000 0.000000 0.072267 0.000000 0.000000
# 5 0.000000 0.000000 0.000000 0.000000 0.072267 0.000000
# 6 -0.000004 0.000004 0.000000 0.000000 0.000000 0.036262
#
#
# Mechanical properties :
#
#
# Convention : Reuss Voigt Hill
#
# Bulk Modulus (GPa) = 27.74022 30.25516 28.99769
# Shear Modulus (GPa) = 14.42177 22.18210 18.30194
#
# Velocity S-wave (km/s) = 2.70674 3.35690 3.04920
# Velocity P-wave (km/s) = 4.88477 5.51317 5.20846
#
# Compressibility (1/GPa) = 0.03604874
#
# Stress axis : x y z
#
# Youngs Moduli (GPa) = 23.08186 23.08186 120.21149
#
# Poissons Ratio (x) = 0.65614 0.06206
# Poissons Ratio (y) = 0.65614 0.06206
# Poissons Ratio (z) = 0.01192 0.01192
#
# Static dielectric constant tensor:
#      x y z
#    x 1.689650 0.000000 0.000000 
#    y 0.000000 1.689650 0.000000 
#    z 0.000000 0.000000 1.776050 
# 
# From -- ./inp_files/177.got.cif
#   From: 2010.05.17/outbox.cif.g08.bks.cpg/sg108_1_cif.got.tgz:177.got - 2010.05.20 10:49:05.
