data_PCOD9553126
_publ_section_title
;
Structure prediction by ZEFSAII (Michael W. Deem and Ramdas Pophale) SiO2 
 PCOD9553126
Probable space group: P 42 M C
;
_chemical_formula_sum "Si O2"
_cell_formula_units_Z 32
_cell_length_a 7.513000
_cell_length_b 7.513000
_cell_length_c 28.067220
_cell_angle_alpha 90.000000
_cell_angle_beta 90.000000
_cell_angle_gamma 90.000000
_cell_volume 1584.258976
_symmetry_space_group_name_H-M "P 42 M C"
_symmetry_group_IT_number 105
_symmetry_cell_setting 'tetragonal'
loop_
_space_group_symop_operation_xyz
x,y,z
-y,x,1/2+z
-x,-y,z
y,-x,1/2+z
-x,y,z
x,-y,z
-y,-x,1/2+z
y,x,1/2+z
loop_
_atom_site_type_symbol
_atom_site_label
_atom_site_fract_x
_atom_site_fract_y
_atom_site_fract_z
Si Si1 0.500000 0.800240 0.417771
Si Si2 0.716920 0.000000 0.662669
Si Si3 0.283021 0.300311 0.736078
Si Si4 0.704949 0.500000 0.022901
Si Si5 0.198872 0.715101 0.342656
Si Si6 0.791064 0.000000 0.552501
O O1 0.500000 0.689002 0.465670
O O2 0.333498 0.772282 0.383178
O O3 0.500000 0.000000 0.435971
O O4 0.771744 0.832437 0.694749
O O5 0.790744 0.000000 0.609884
O O6 0.500000 0.000000 0.658652
O O7 0.500000 0.293902 0.737368
O O8 0.227429 0.500000 0.725996
O O9 0.223954 0.248451 0.789343
O O10 0.500000 0.500000 0.042411
O O11 0.825718 0.326800 0.037184
O O12 0.204089 0.500000 0.341305
O O13 0.000000 0.773129 0.353669
O O14 0.000000 0.000000 0.536087
#
# Coordination Sequence:
#
# PCOD9553126 Si02
#       6
#     4   4   8   4   8   4
#     4  12  24  41  63  90 129 179 222 277 345 403
#     4  10  18  35  61  94 129 179 224 273 349 405
#     4   9  16  28  54  88 126 171 221 269 321 401
#     4  11  25  50  77 101 134 181 239 302 359 424
#     4  10  19  34  59  92 128 168 218 271 328 402
#     4  11  25  48  73 105 142 175 233 310 361 418
#
# _framework density 20.198718
#
# number of rings (size 3 to 8) (size 9 to 14) (size 15 to 20)
#    0.000    1.750    5.000    1.125    0.000    3.000 
#    0.000    1.250    0.000    0.000    0.000    0.000 
#    0.000    0.000    0.000    0.000    0.000    0.000 
#
# Total GULP energy -178658.387797 kJ/mol
# GULP energy per Si atom -5583.074619 kJ/mol
# Density = 2.015275 g / cm^3
# Si number density = 20.198718 Si / 1000 Ang^3
#
#
#
# Elastic Constant Matrix: (Units=GPa)
#
#
# Indices 1 2 3 4 5 6 
#
# 1 143.6908 39.0111 41.1451 0.0000 0.0000 0.0000
# 2 39.0111 143.6908 41.1451 0.0000 0.0000 0.0000
# 3 41.1451 41.1451 136.7432 0.0000 0.0000 0.0000
# 4 0.0000 0.0000 0.0000 -0.3835 0.0000 0.0000
# 5 0.0000 0.0000 0.0000 0.0000 -0.3835 0.0000
# 6 0.0000 0.0000 0.0000 0.0000 0.0000 2.1408
#
#
#
# Elastic Compliance Matrix: (Units=1/GPa)
#
#
# Indices 1 2 3 4 5 6 
#
# 1 0.007942 -0.001611 -0.001905 0.000000 0.000000 0.000000
# 2 -0.001611 0.007942 -0.001905 0.000000 0.000000 0.000000
# 3 -0.001905 -0.001905 0.008459 0.000000 0.000000 0.000000
# 4 0.000000 0.000000 0.000000 -2.607615 0.000000 0.000000
# 5 0.000000 0.000000 0.000000 0.000000 -2.607615 0.000000
# 6 0.000000 0.000000 0.000000 0.000000 0.000000 0.467115
#
#
# Mechanical properties :
#
#
# Convention : Reuss Voigt Hill
#
# Bulk Modulus (GPa) = 74.06316 74.08082 74.07199
# Shear Modulus (GPa) = -1.06193 20.46300 9.70054
#
# Velocity S-wave (km/s) = -0.72587 3.18635 2.19385
# Velocity P-wave (km/s) = 6.00369 7.09174 6.57028
#
# Compressibility (1/GPa) = 0.01350199
#
# Stress axis : x y z
#
# Youngs Moduli (GPa) = 125.90959 125.90959 118.21121
#
# Poissons Ratio (x) = 0.20281 0.22520
# Poissons Ratio (y) = 0.20281 0.22520
# Poissons Ratio (z) = 0.23987 0.23987
#
# Static dielectric constant tensor:
#      x y z
#    x 1.744340 0.000000 0.000000 
#    y 0.000000 1.744340 0.000000 
#    z 0.000000 0.000000 1.673350 
# 
# From -- ./inp_files/3886.got.cif
#   From: 2010.05.17/outbox.cif.g08.bks.cpg/sg105_2_cif.got.tgz:3886.got - 2010.05.20 10:41:19.
