data_PCOD9553464
_publ_section_title
;
Structure prediction by ZEFSAII (Michael W. Deem and Ramdas Pophale) SiO2 
 PCOD9553464
Probable space group: P 42 B C
;
_chemical_formula_sum "Si O2"
_cell_formula_units_Z 60
_cell_length_a 17.123426
_cell_length_b 17.123426
_cell_length_c 10.023125
_cell_angle_alpha 90.000000
_cell_angle_beta 90.000000
_cell_angle_gamma 90.000000
_cell_volume 2938.897701
_symmetry_space_group_name_H-M "P 42 B C"
_symmetry_group_IT_number 106
_symmetry_cell_setting 'tetragonal'
loop_
_space_group_symop_operation_xyz
x,y,z
-y,x,1/2+z
-x,-y,z
y,-x,1/2+z
1/2-x,1/2+y,z
1/2+x,1/2-y,z
1/2-y,1/2-x,1/2+z
1/2+y,1/2+x,1/2+z
loop_
_atom_site_type_symbol
_atom_site_label
_atom_site_fract_x
_atom_site_fract_y
_atom_site_fract_z
Si Si1 0.719177 0.172917 0.097490
Si Si2 0.458172 0.176503 0.319054
Si Si3 0.074927 0.930663 0.126916
Si Si4 0.500000 0.500000 0.378209
Si Si5 0.771206 0.990431 0.070753
Si Si6 0.862158 0.623833 0.353177
Si Si7 0.180205 0.556709 0.323566
Si Si8 0.758574 0.878051 0.574655
O O1 0.747948 0.082781 0.074034
O O2 0.686061 0.173929 0.245681
O O3 0.783377 0.240069 0.072222
O O4 0.648414 0.173622 0.994233
O O5 0.458184 0.247282 0.426212
O O6 0.546174 0.142550 0.328912
O O7 0.395122 0.109965 0.352407
O O8 0.426491 0.204689 0.176067
O O9 0.138215 0.001182 0.112452
O O10 0.109635 0.845582 0.126788
O O11 0.031341 0.938853 0.268494
O O12 0.028169 0.936386 0.986487
O O13 0.720225 0.942686 0.177923
O O14 0.846407 0.532587 0.337396
O O15 0.243174 0.586086 0.430308
#
# Coordination Sequence:
#
# PCOD9553464 Si02
#       8
#     8   8   8   4   8   8   8   8
#     4   9  21  37  59  84 117 162 205 249 305 378
#     4  11  22  38  62  92 124 162 211 256 310 374
#     4  10  20  38  58  87 121 159 209 259 327 365
#     4  10  20  34  64  86 112 154 220 262 296 394
#     4   9  20  38  56  83 121 160 196 255 311 369
#     4  10  21  42  64  86 124 167 208 252 314 374
#     4  11  22  38  62  92 124 162 211 256 310 374
#     4  11  23  37  58  89 129 159 203 264 314 373
#
# _framework density 20.415817000000001
#
# number of rings (size 3 to 8) (size 9 to 14) (size 15 to 20)
#    0.000    1.867    0.000    3.600    1.867    0.000 
#    0.000    5.333    0.000    0.000    0.000    0.000 
#    0.000    0.000    0.000    0.000    0.000    0.000 
#
# Total GULP energy -334042.660743 kJ/mol
# GULP energy per Si atom -5567.377679 kJ/mol
# Density = 2.036935 g / cm^3
# Si number density = 20.415817 Si / 1000 Ang^3
#
#
#
# Elastic Constant Matrix: (Units=GPa)
#
#
# Indices 1 2 3 4 5 6 
#
# 1 20.1138 30.9010 -8.3493 0.0000 0.0000 0.0000
# 2 30.9010 20.1138 -8.3493 0.0000 0.0000 0.0000
# 3 -8.3493 -8.3493 66.2464 0.0000 0.0000 0.0000
# 4 0.0000 0.0000 0.0000 14.4381 0.0000 0.0000
# 5 0.0000 0.0000 0.0000 0.0000 14.4381 0.0000
# 6 0.0000 0.0000 0.0000 0.0000 0.0000 29.4512
#
#
#
# Elastic Compliance Matrix: (Units=1/GPa)
#
#
# Indices 1 2 3 4 5 6 
#
# 1 -0.036128 0.056574 0.002577 0.000000 0.000000 0.000000
# 2 0.056574 -0.036128 0.002577 0.000000 0.000000 0.000000
# 3 0.002577 0.002577 0.015745 0.000000 0.000000 0.000000
# 4 0.000000 0.000000 0.000000 0.069261 0.000000 0.000000
# 5 0.000000 0.000000 0.000000 0.000000 0.069261 0.000000
# 6 0.000000 0.000000 0.000000 0.000000 0.000000 0.033954
#
#
# Mechanical properties :
#
#
# Convention : Reuss Voigt Hill
#
# Bulk Modulus (GPa) = 14.93802 14.98655 14.96228
# Shear Modulus (GPa) = 337.29249 17.81690 177.55469
#
# Velocity S-wave (km/s) = 12.86740 2.95736 9.33584
# Velocity P-wave (km/s) = 15.10274 4.36095 11.11554
#
# Compressibility (1/GPa) = 0.06694328
#
# Stress axis : x y z
#
# Youngs Moduli (GPa) = -27.67900 -27.67900 63.51341
#
# Poissons Ratio (x) = 1.56591 -0.16366
# Poissons Ratio (y) = 1.56591 -0.16366
# Poissons Ratio (z) = 0.07132 0.07132
#
# Static dielectric constant tensor:
#      x y z
#    x 1.767800 0.000000 0.000000 
#    y 0.000000 1.767800 0.000000 
#    z 0.000000 0.000000 1.703580 
# 
# From -- ./inp_files/557.got.cif
#   From: 2010.05.17/outbox.cif.g08.bks.cpg/sg106_cif.got.tgz:557.got - 2010.05.20 10:43:49.
