data_PCOD9553904
_publ_section_title
;
Structure prediction by ZEFSAII (Michael W. Deem and Ramdas Pophale) SiO2 
 PCOD9553904
Probable space group: I 4 C M
;
_chemical_formula_sum "Si O2"
_cell_formula_units_Z 96
_cell_length_a 14.770130
_cell_length_b 14.770130
_cell_length_c 23.280058
_cell_angle_alpha 90.000000
_cell_angle_beta 90.000000
_cell_angle_gamma 90.000000
_cell_volume 5078.701565
_symmetry_space_group_name_H-M "I 4 C M"
_symmetry_group_IT_number 108
_symmetry_cell_setting 'tetragonal'
loop_
_space_group_symop_operation_xyz
x,y,z
-y,x,z
-x,-y,z
y,-x,z
-x,y,1/2+z
x,-y,1/2+z
-y,-x,1/2+z
y,x,1/2+z
1/2+x,1/2+y,1/2+z
1/2-y,1/2+x,1/2+z
1/2-x,1/2-y,1/2+z
1/2+y,1/2-x,1/2+z
1/2-x,1/2+y,z
1/2+x,1/2-y,z
1/2-y,1/2-x,z
1/2+y,1/2+x,z
loop_
_atom_site_type_symbol
_atom_site_label
_atom_site_fract_x
_atom_site_fract_y
_atom_site_fract_z
Si Si1 0.927308 0.572693 0.024540
Si Si2 0.854351 0.795955 0.551241
Si Si3 0.074793 0.574793 0.389179
Si Si4 0.498207 0.849029 0.720477
Si Si5 0.756730 0.537598 0.098682
Si Si6 0.423460 0.633342 0.428943
Si Si7 0.286653 0.942077 0.338472
O O1 0.835160 0.540515 0.051586
O O2 0.000000 0.500000 0.041830
O O3 0.920661 0.579340 0.957032
O O4 0.798318 0.701683 0.553404
O O5 0.795174 0.870466 0.584680
O O6 0.879829 0.818758 0.485062
O O7 0.948897 0.798820 0.584197
O O8 0.167892 0.531197 0.367830
O O9 0.000000 0.500000 0.371118
O O10 0.568722 0.931278 0.727073
O O11 0.521966 0.801229 0.660613
O O12 0.523674 0.781625 0.772646
O O13 0.399002 0.899002 0.722378
O O14 0.381303 0.532437 0.430404
O O15 0.411444 0.697169 0.372801
O O16 0.359364 0.859364 0.342041
#
# Coordination Sequence:
#
# PCOD9553904 Si02
#       7
#     8  16   8  16  16  16  16
#     4  11  20  36  62  97 130 167 221 290 349 400
#     4  12  24  42  66  98 135 173 225 281 344 413
#     4   9  18  32  58  95 128 156 201 260 333 391
#     4  10  19  38  66  95 134 174 221 279 346 409
#     4  12  24  40  64  97 135 180 226 278 345 415
#     4  11  24  44  65  87 129 176 218 265 335 412
#     4  10  20  39  64  95 127 169 215 272 333 399
#
# _framework density 18.902469
#
# number of rings (size 3 to 8) (size 9 to 14) (size 15 to 20)
#    0.000    1.167    4.167    3.000    0.000    1.667 
#    4.500    0.000    0.000    0.000    0.000    0.000 
#    0.000    0.000    0.000    0.000    0.000    0.000 
#
# Total GULP energy -267525.036381 kJ/mol
# GULP energy per Si atom -5573.438258 kJ/mol
# Density = 1.885945 g / cm^3
# Si number density = 18.902469 Si / 1000 Ang^3
#
#
#
# Elastic Constant Matrix: (Units=GPa)
#
#
# Indices 1 2 3 4 5 6 
#
# 1 74.6542 -53.0174 1.4362 0.0000 0.0000 0.0025
# 2 -53.0174 74.6542 1.4362 0.0000 0.0000 -0.0025
# 3 1.4362 1.4362 196.4906 0.0000 0.0000 0.0000
# 4 0.0000 0.0000 0.0000 32.3133 0.0000 0.0000
# 5 0.0000 0.0000 0.0000 0.0000 32.3133 0.0000
# 6 0.0025 -0.0025 0.0000 0.0000 0.0000 30.1109
#
#
#
# Elastic Compliance Matrix: (Units=1/GPa)
#
#
# Indices 1 2 3 4 5 6 
#
# 1 0.027047 0.019215 -0.000338 0.000000 0.000000 -0.000001
# 2 0.019215 0.027047 -0.000338 0.000000 0.000000 0.000001
# 3 -0.000338 -0.000338 0.005094 0.000000 0.000000 0.000000
# 4 0.000000 0.000000 0.000000 0.030947 0.000000 0.000000
# 5 0.000000 0.000000 0.000000 0.000000 0.030947 0.000000
# 6 -0.000001 0.000001 0.000000 0.000000 0.000000 0.033211
#
#
# Mechanical properties :
#
#
# Convention : Reuss Voigt Hill
#
# Bulk Modulus (GPa) = 10.38783 27.27876 18.83330
# Shear Modulus (GPa) = 33.48839 45.34375 39.41607
#
# Velocity S-wave (km/s) = 4.21365 4.90310 4.57139
# Velocity P-wave (km/s) = 5.40191 6.82030 6.15211
#
# Compressibility (1/GPa) = 0.09626648
#
# Stress axis : x y z
#
# Youngs Moduli (GPa) = 36.97200 36.97200 196.29993
#
# Poissons Ratio (x) = -0.71041 0.06638
# Poissons Ratio (y) = -0.71041 0.06638
# Poissons Ratio (z) = 0.01250 0.01250
#
# Static dielectric constant tensor:
#      x y z
#    x 1.568090 0.000000 0.000000 
#    y 0.000000 1.568090 0.000000 
#    z 0.000000 0.000000 1.664000 
# 
# From -- ./inp_files/2925.got.cif
#   From: 2010.05.17/outbox.cif.g08.bks.cpg/sg108_2_cif.got.tgz:2925.got - 2010.05.20 10:49:05.
