data_PCOD9553658
_publ_section_title
;
Structure prediction by ZEFSAII (Michael W. Deem and Ramdas Pophale) SiO2 
 PCOD9553658
Probable space group: I 4 M M
;
_chemical_formula_sum "Si O2"
_cell_formula_units_Z 104
_cell_length_a 18.627598
_cell_length_b 18.627598
_cell_length_c 18.647776
_cell_angle_alpha 90.000000
_cell_angle_beta 90.000000
_cell_angle_gamma 90.000000
_cell_volume 6470.543445
_symmetry_space_group_name_H-M "I 4 M M"
_symmetry_group_IT_number 107
_symmetry_cell_setting 'tetragonal'
loop_
_space_group_symop_operation_xyz
x,y,z
-y,x,z
-x,-y,z
y,-x,z
-x,y,z
x,-y,z
-y,-x,z
y,x,z
1/2+x,1/2+y,1/2+z
1/2-y,1/2+x,1/2+z
1/2-x,1/2-y,1/2+z
1/2+y,1/2-x,1/2+z
1/2-x,1/2+y,1/2+z
1/2+x,1/2-y,1/2+z
1/2-y,1/2-x,1/2+z
1/2+y,1/2+x,1/2+z
loop_
_atom_site_type_symbol
_atom_site_label
_atom_site_fract_x
_atom_site_fract_y
_atom_site_fract_z
Si Si1 0.500000 0.918396 0.492990
Si Si2 0.294443 0.582620 0.978168
Si Si3 0.851933 0.356914 0.045001
Si Si4 0.000000 0.421158 0.743724
Si Si5 0.161453 0.581345 0.687696
Si Si6 0.355146 0.756940 0.409326
Si Si7 0.864589 0.250703 0.324529
Si Si8 0.000000 0.304292 0.863655
O O1 0.424582 0.904474 0.533867
O O2 0.500000 0.862402 0.428034
O O3 0.500000 0.000000 0.467774
O O4 0.315004 0.500000 0.993849
O O5 0.357501 0.642500 0.989729
O O6 0.273132 0.588140 0.893378
O O7 0.222643 0.603650 0.023930
O O8 0.860340 0.327299 0.125305
O O9 0.858180 0.293438 0.987103
O O10 0.924283 0.418129 0.702794
O O11 0.000000 0.353156 0.794514
O O12 0.000000 0.500000 0.780859
O O13 0.180261 0.500000 0.664002
O O14 0.206933 0.598002 0.759605
O O15 0.319101 0.680900 0.414825
O O16 0.305544 0.808647 0.361151
O O17 0.430869 0.756622 0.372149
O O18 0.818525 0.181475 0.299722
#
# Coordination Sequence:
#
# PCOD9553658 Si02
#       8
#     8  16  16   8  16  16  16   8
#     4  10  19  28  46  70 100 135 171 197 234 290
#     4  10  21  37  56  76 100 133 174 221 265 304
#     4  10  20  32  49  72 104 139 168 202 245 296
#     4  10  21  30  44  72 108 137 165 195 236 292
#     4  11  21  32  48  73 108 140 168 200 239 299
#     4   9  18  33  51  71  95 126 168 211 250 297
#     4   9  18  33  52  74 101 130 164 206 250 298
#     4  10  17  32  50  71  92 128 164 204 252 299
#
# _framework density 16.072839999999999
#
# number of rings (size 3 to 8) (size 9 to 14) (size 15 to 20)
#    0.000    2.154    2.308    2.538    2.154    1.385 
#    0.000    0.000    0.000    0.231    0.000    0.000 
#    0.000    0.000    0.000    0.000    0.000    0.000 
#
# Total GULP energy -289480.091625 kJ/mol
# GULP energy per Si atom -5566.924839 kJ/mol
# Density = 1.603626 g / cm^3
# Si number density = 16.072840 Si / 1000 Ang^3
#
#
#
# Elastic Constant Matrix: (Units=GPa)
#
#
# Indices 1 2 3 4 5 6 
#
# 1 86.3968 54.7856 28.3625 0.0000 0.0000 0.0005
# 2 54.7856 86.3968 28.3625 0.0000 0.0000 -0.0005
# 3 28.3625 28.3625 74.0805 0.0000 0.0000 0.0000
# 4 0.0000 0.0000 0.0000 9.2042 0.0000 0.0000
# 5 0.0000 0.0000 0.0000 0.0000 9.2042 0.0000
# 6 0.0005 -0.0005 0.0000 0.0000 0.0000 19.3664
#
#
#
# Elastic Compliance Matrix: (Units=1/GPa)
#
#
# Indices 1 2 3 4 5 6 
#
# 1 0.020003 -0.011632 -0.003205 0.000000 0.000000 -0.000001
# 2 -0.011632 0.020003 -0.003205 0.000000 0.000000 0.000001
# 3 -0.003205 -0.003205 0.015953 0.000000 0.000000 0.000000
# 4 0.000000 0.000000 0.000000 0.108646 0.000000 0.000000
# 5 0.000000 0.000000 0.000000 0.000000 0.108646 0.000000
# 6 -0.000001 0.000001 0.000000 0.000000 0.000000 0.051636
#
#
# Mechanical properties :
#
#
# Convention : Reuss Voigt Hill
#
# Bulk Modulus (GPa) = 50.31457 52.21059 51.26258
# Shear Modulus (GPa) = 13.60200 16.57920 15.09060
#
# Velocity S-wave (km/s) = 2.91223 3.21519 3.06745
# Velocity P-wave (km/s) = 6.53301 6.80717 6.67149
#
# Compressibility (1/GPa) = 0.01987496
#
# Stress axis : x y z
#
# Youngs Moduli (GPa) = 49.99373 49.99372 62.68485
#
# Poissons Ratio (x) = 0.58152 0.20089
# Poissons Ratio (y) = 0.58152 0.20089
# Poissons Ratio (z) = 0.16022 0.16022
#
# Static dielectric constant tensor:
#      x y z
#    x 1.540650 0.000000 0.000000 
#    y 0.000000 1.540650 0.000000 
#    z 0.000000 0.000000 1.557220 
# 
# From -- ./inp_files/4190.got.cif
#   From: 2010.05.17/outbox.cif.g08.bks.cpg/sg107_3_cif.got.tgz:4190.got - 2010.05.20 10:45:06.
