data_PCOD9553287
_publ_section_title
;
Structure prediction by ZEFSAII (Michael W. Deem and Ramdas Pophale) SiO2 
 PCOD9553287
Probable space group: P 42 M C
;
_chemical_formula_sum "Si O2"
_cell_formula_units_Z 48
_cell_length_a 8.227024
_cell_length_b 8.227024
_cell_length_c 34.520559
_cell_angle_alpha 90.000000
_cell_angle_beta 90.000000
_cell_angle_gamma 90.000000
_cell_volume 2336.486888
_symmetry_space_group_name_H-M "P 42 M C"
_symmetry_group_IT_number 105
_symmetry_cell_setting 'tetragonal'
loop_
_space_group_symop_operation_xyz
x,y,z
-y,x,1/2+z
-x,-y,z
y,-x,1/2+z
-x,y,z
x,-y,z
-y,-x,1/2+z
y,x,1/2+z
loop_
_atom_site_type_symbol
_atom_site_label
_atom_site_fract_x
_atom_site_fract_y
_atom_site_fract_z
Si Si1 0.187269 0.806435 0.696030
Si Si2 0.813237 0.304036 0.032532
Si Si3 0.802975 0.680264 0.276938
Si Si4 0.312579 0.691925 0.614788
Si Si5 0.322938 0.805361 0.953602
Si Si6 0.805053 0.000000 0.411155
Si Si7 0.000000 0.307383 0.823323
O O1 0.295193 0.750349 0.732174
O O2 0.223947 0.728660 0.654763
O O3 0.000000 0.777781 0.706853
O O4 0.211133 0.000000 0.691569
O O5 0.792216 0.500000 0.032621
O O6 0.774606 0.245819 0.075952
O O7 0.000000 0.266230 0.023114
O O8 0.703356 0.231372 0.998896
O O9 0.752547 0.500000 0.290680
O O10 0.744221 0.835539 0.300995
O O11 0.000000 0.685340 0.277370
O O12 0.500000 0.747013 0.619764
O O13 0.312254 0.500000 0.607660
O O14 0.500000 0.741899 0.941076
O O15 0.165280 0.740011 0.930928
O O16 0.324815 0.000000 0.948285
O O17 0.770291 0.000000 0.365805
O O18 0.000000 0.000000 0.417125
O O19 0.000000 0.500000 0.827051
#
# Coordination Sequence:
#
# PCOD9553287 Si02
#       7
#     8   8   8   8   8   4   4
#     4  10  20  36  59  85 114 151 201 255 304 360
#     4  10  20  35  57  83 114 155 203 251 305 366
#     4  10  21  41  69  94 121 164 213 259 310 375
#     4  10  21  35  51  77 115 157 200 247 300 361
#     4  10  21  38  62  90 118 153 198 248 304 364
#     4  10  22  42  64  88 122 160 204 254 302 366
#     4  12  26  42  64  96 134 164 200 258 318 386
#
# _framework density 20.543664
#
# number of rings (size 3 to 8) (size 9 to 14) (size 15 to 20)
#    0.000    1.833    1.667    2.250    0.000    6.000 
#    0.000    1.667    0.000    0.000    0.000    0.000 
#    0.000    0.000    0.000    0.000    0.000    0.000 
#
# Total GULP energy -268074.506061 kJ/mol
# GULP energy per Si atom -5584.885543 kJ/mol
# Density = 2.049691 g / cm^3
# Si number density = 20.543664 Si / 1000 Ang^3
#
#
#
# Elastic Constant Matrix: (Units=GPa)
#
#
# Indices 1 2 3 4 5 6 
#
# 1 45.9209 41.6666 20.8123 0.0000 0.0000 0.0000
# 2 41.6666 45.9209 20.8123 0.0000 0.0000 0.0000
# 3 20.8123 20.8123 92.2928 0.0000 0.0000 0.0000
# 4 0.0000 0.0000 0.0000 -20.9044 0.0000 0.0000
# 5 0.0000 0.0000 0.0000 0.0000 -20.9044 0.0000
# 6 0.0000 0.0000 0.0000 0.0000 0.0000 16.8481
#
#
#
# Elastic Compliance Matrix: (Units=1/GPa)
#
#
# Indices 1 2 3 4 5 6 
#
# 1 0.123924 -0.111137 -0.002884 0.000000 0.000000 0.000000
# 2 -0.111137 0.123924 -0.002884 0.000000 0.000000 0.000000
# 3 -0.002884 -0.002884 0.012136 0.000000 0.000000 0.000000
# 4 0.000000 0.000000 0.000000 -0.047837 0.000000 0.000000
# 5 0.000000 0.000000 0.000000 0.000000 -0.047837 0.000000
# 6 0.000000 0.000000 0.000000 0.000000 0.000000 0.059354
#
#
# Mechanical properties :
#
#
# Convention : Reuss Voigt Hill
#
# Bulk Modulus (GPa) = 38.20262 38.96854 38.58558
# Shear Modulus (GPa) = 10.72508 1.73074 6.22791
#
# Velocity S-wave (km/s) = 2.28735 0.91886 1.74302
# Velocity P-wave (km/s) = 5.06084 4.48727 4.78266
#
# Compressibility (1/GPa) = 0.02617621
#
# Stress axis : x y z
#
# Youngs Moduli (GPa) = 8.06946 8.06946 82.40213
#
# Poissons Ratio (x) = 0.89681 0.23762
# Poissons Ratio (y) = 0.89681 0.23762
# Poissons Ratio (z) = 0.02327 0.02327
#
# Static dielectric constant tensor:
#      x y z
#    x 1.742150 0.000000 0.000000 
#    y 0.000000 1.742150 0.000000 
#    z 0.000000 0.000000 1.715990 
# 
# From -- ./inp_files/4751.got.cif
#   From: 2010.05.17/outbox.cif.g08.bks.cpg/sg105_3_cif.got.tgz:4751.got - 2010.05.20 10:41:19.
