data_PCOD9553912
_publ_section_title
;
Structure prediction by ZEFSAII (Michael W. Deem and Ramdas Pophale) SiO2 
 PCOD9553912
Probable space group: I 4 C M
;
_chemical_formula_sum "Si O2"
_cell_formula_units_Z 64
_cell_length_a 11.373907
_cell_length_b 11.373907
_cell_length_c 20.458578
_cell_angle_alpha 90.000000
_cell_angle_beta 90.000000
_cell_angle_gamma 90.000000
_cell_volume 2646.639501
_symmetry_space_group_name_H-M "I 4 C M"
_symmetry_group_IT_number 108
_symmetry_cell_setting 'tetragonal'
loop_
_space_group_symop_operation_xyz
x,y,z
-y,x,z
-x,-y,z
y,-x,z
-x,y,1/2+z
x,-y,1/2+z
-y,-x,1/2+z
y,x,1/2+z
1/2+x,1/2+y,1/2+z
1/2-y,1/2+x,1/2+z
1/2-x,1/2-y,1/2+z
1/2+y,1/2-x,1/2+z
1/2-x,1/2+y,z
1/2+x,1/2-y,z
1/2-y,1/2-x,z
1/2+y,1/2+x,z
loop_
_atom_site_type_symbol
_atom_site_label
_atom_site_fract_x
_atom_site_fract_y
_atom_site_fract_z
Si Si1 0.915690 0.226118 0.560610
Si Si2 0.084315 0.226115 0.657234
Si Si3 0.198137 0.495009 0.285842
Si Si4 0.301864 0.995008 0.432001
O O1 0.796967 0.296967 0.546747
O O2 0.878460 0.121543 0.608922
O O3 0.000004 0.299822 0.608922
O O4 0.980012 0.214147 0.491417
O O5 0.203040 0.296961 0.671098
O O6 0.019989 0.214146 0.726427
O O7 0.097279 0.597279 0.284138
O O8 0.249117 0.495608 0.358921
O O9 0.126517 0.373484 0.276489
O O10 0.373483 0.873483 0.441354
O O11 0.402723 0.097278 0.433705
#
# Coordination Sequence:
#
# PCOD9553912 Si02
#       4
#    16  16  16  16
#     4  10  20  33  50  74 103 136 177 224 277 338
#     4  10  20  33  50  74 103 136 177 224 277 338
#     4   8  14  27  49  75 102 133 171 219 273 328
#     4   8  14  27  49  75 102 133 171 219 273 328
#
# _framework density 24.181609999999999
#
# number of rings (size 3 to 8) (size 9 to 14) (size 15 to 20)
#    0.000    3.000    0.000    3.000    0.000    3.000 
#    0.000    2.500    0.000    9.000    0.000    3.500 
#    0.000    0.000    0.000    0.000    0.000    0.000 
#
# Total GULP energy -178358.669410 kJ/mol
# GULP energy per Si atom -5573.708419 kJ/mol
# Density = 2.412657 g / cm^3
# Si number density = 24.181610 Si / 1000 Ang^3
#
#
#
# Elastic Constant Matrix: (Units=GPa)
#
#
# Indices 1 2 3 4 5 6 
#
# 1 49.0972 27.7571 65.1870 0.0000 0.0000 -0.0006
# 2 27.7571 49.0972 65.1870 0.0000 0.0000 0.0006
# 3 65.1870 65.1870 312.1221 0.0000 0.0000 0.0000
# 4 0.0000 0.0000 0.0000 28.7112 0.0000 0.0000
# 5 0.0000 0.0000 0.0000 0.0000 28.7112 0.0000
# 6 -0.0006 0.0006 0.0000 0.0000 0.0000 16.4648
#
#
#
# Elastic Compliance Matrix: (Units=1/GPa)
#
#
# Indices 1 2 3 4 5 6 
#
# 1 0.033506 -0.013355 -0.004209 0.000000 0.000000 0.000002
# 2 -0.013355 0.033506 -0.004209 0.000000 0.000000 -0.000002
# 3 -0.004209 -0.004209 0.004962 0.000000 0.000000 0.000000
# 4 0.000000 0.000000 0.000000 0.034830 0.000000 0.000000
# 5 0.000000 0.000000 0.000000 0.000000 0.034830 0.000000
# 6 0.000002 -0.000002 0.000000 0.000000 0.000000 0.060736
#
#
# Mechanical properties :
#
#
# Convention : Reuss Voigt Hill
#
# Bulk Modulus (GPa) = 35.17479 80.73094 57.95286
# Shear Modulus (GPa) = 19.57808 31.58980 25.58394
#
# Velocity S-wave (km/s) = 2.84848 3.61828 3.25621
# Velocity P-wave (km/s) = 5.03946 7.13538 6.17696
#
# Compressibility (1/GPa) = 0.02842946
#
# Stress axis : x y z
#
# Youngs Moduli (GPa) = 29.84582 29.84582 201.54035
#
# Poissons Ratio (x) = 0.39858 0.84819
# Poissons Ratio (y) = 0.39858 0.84819
# Poissons Ratio (z) = 0.12561 0.12561
#
# Static dielectric constant tensor:
#      x y z
#    x 2.021010 0.000000 0.000000 
#    y 0.000000 2.021010 0.000000 
#    z 0.000000 0.000000 1.918270 
# 
# From -- ./inp_files/2736.got.cif
#   From: 2010.05.17/outbox.cif.g08.bks.cpg/sg108_2_cif.got.tgz:2736.got - 2010.05.20 10:49:05.
