data_PCOD9553597
_publ_section_title
;
Structure prediction by ZEFSAII (Michael W. Deem and Ramdas Pophale) SiO2 
 PCOD9553597
Probable space group: P 42 B C
;
_chemical_formula_sum "Si O2"
_cell_formula_units_Z 64
_cell_length_a 32.234369
_cell_length_b 32.234369
_cell_length_c 5.337969
_cell_angle_alpha 90.000000
_cell_angle_beta 90.000000
_cell_angle_gamma 90.000000
_cell_volume 5546.440950
_symmetry_space_group_name_H-M "P 42 B C"
_symmetry_group_IT_number 106
_symmetry_cell_setting 'tetragonal'
loop_
_space_group_symop_operation_xyz
x,y,z
-y,x,1/2+z
-x,-y,z
y,-x,1/2+z
1/2-x,1/2+y,z
1/2+x,1/2-y,z
1/2-y,1/2-x,1/2+z
1/2+y,1/2+x,1/2+z
loop_
_atom_site_type_symbol
_atom_site_label
_atom_site_fract_x
_atom_site_fract_y
_atom_site_fract_z
Si Si1 0.731338 0.197177 0.111740
Si Si2 0.697178 0.768662 0.111723
Si Si3 0.401953 0.527455 0.111562
Si Si4 0.629257 0.700828 0.111499
Si Si5 0.527455 0.401953 0.111562
Si Si6 0.833168 0.095525 0.611500
Si Si7 0.200828 0.870743 0.111499
Si Si8 0.666831 0.404475 0.111500
O O1 0.704966 0.204943 0.361795
O O2 0.767105 0.232895 0.111737
O O3 0.756036 0.154017 0.111597
O O4 0.704945 0.795035 0.361773
O O5 0.654017 0.743964 0.111592
O O6 0.439137 0.560863 0.111567
O O7 0.404702 0.499999 0.361557
O O8 0.359022 0.553184 0.111561
O O9 0.404702 0.500001 0.861557
O O10 0.664973 0.664972 0.111491
O O11 0.602735 0.693304 0.361222
O O12 0.602746 0.693317 0.861718
O O13 0.553184 0.359022 0.111563
O O14 0.806696 0.102734 0.361220
O O15 0.868149 0.131851 0.611500
O O16 0.806682 0.102746 0.861716
#
# Coordination Sequence:
#
# PCOD9553597 Si02
#       8
#     8   8   8   8   8   8   8   8
#     4   9  15  21  30  47  69  89 107 125 143 161
#     4   9  15  21  30  47  69  89 107 125 143 161
#     4  11  22  34  46  58  70  82  99 128 168 216
#     4   9  15  24  37  50  66  87 107 125 143 168
#     4  11  22  34  46  58  70  82  99 128 168 216
#     4   9  17  28  40  52  64  81 104 125 149 186
#     4   9  15  24  37  50  66  87 107 125 143 168
#     4   9  17  28  40  52  64  81 104 125 149 186
#
# _framework density 11.538932000000001
#
# number of rings (size 3 to 8) (size 9 to 14) (size 15 to 20)
#    0.000    2.500    0.000    3.750    0.000   11.500 
#    0.000    0.000    0.000    0.000    0.000    0.000 
#    0.000    0.000    0.000    0.000    0.000    0.000 
#
# Total GULP energy -356625.956877 kJ/mol
# GULP energy per Si atom -5572.280576 kJ/mol
# Density = 1.151267 g / cm^3
# Si number density = 11.538932 Si / 1000 Ang^3
#
#
#
# Elastic Constant Matrix: (Units=GPa)
#
#
# Indices 1 2 3 4 5 6 
#
# 1 45.9660 47.0925 52.2579 0.0000 0.0000 0.0000
# 2 47.0925 45.9660 52.2579 0.0000 0.0000 0.0000
# 3 52.2579 52.2579 147.3774 0.0000 0.0000 0.0000
# 4 0.0000 0.0000 0.0000 16.0107 0.0000 0.0000
# 5 0.0000 0.0000 0.0000 0.0000 16.0107 0.0000
# 6 0.0000 0.0000 0.0000 0.0000 0.0000 25.0444
#
#
#
# Elastic Compliance Matrix: (Units=1/GPa)
#
#
# Indices 1 2 3 4 5 6 
#
# 1 -0.434927 0.452785 -0.006332 0.000000 0.000000 0.000000
# 2 0.452785 -0.434927 -0.006332 0.000000 0.000000 0.000000
# 3 -0.006332 -0.006332 0.011276 0.000000 0.000000 0.000000
# 4 0.000000 0.000000 0.000000 0.062458 0.000000 0.000000
# 5 0.000000 0.000000 0.000000 0.000000 0.062458 0.000000
# 6 0.000000 0.000000 0.000000 0.000000 0.000000 0.039929
#
#
# Mechanical properties :
#
#
# Convention : Reuss Voigt Hill
#
# Bulk Modulus (GPa) = 46.16216 60.28068 53.22142
# Shear Modulus (GPa) = -3.19131 17.25989 7.03429
#
# Velocity S-wave (km/s) = -1.66484 3.87175 2.47171
# Velocity P-wave (km/s) = 6.03298 8.50540 7.37355
#
# Compressibility (1/GPa) = 0.02166276
#
# Stress axis : x y z
#
# Youngs Moduli (GPa) = -2.29923 -2.29923 88.68553
#
# Poissons Ratio (x) = 1.04106 0.56156
# Poissons Ratio (y) = 1.04106 0.56156
# Poissons Ratio (z) = -0.01456 -0.01456
#
# Static dielectric constant tensor:
#      x y z
#    x 1.351020 0.000000 0.000000 
#    y 0.000000 1.351020 0.000000 
#    z 0.000000 0.000000 1.384270 
# 
# From -- ./inp_files/174.got.cif
#   From: 2010.05.17/outbox.cif.g08.bks.cpg/sg106_cif.got.tgz:174.got - 2010.05.20 10:43:49.
