data_PCOD9554394
_publ_section_title
;
Structure prediction by ZEFSAII (Michael W. Deem and Ramdas Pophale) SiO2 
 PCOD9554394
Probable space group: I 41 C D
;
_chemical_formula_sum "Si O2"
_cell_formula_units_Z 80
_cell_length_a 29.112621
_cell_length_b 29.112621
_cell_length_c 5.117446
_cell_angle_alpha 90.000000
_cell_angle_beta 90.000000
_cell_angle_gamma 90.000000
_cell_volume 4337.264242
_symmetry_space_group_name_H-M "I 41 C D"
_symmetry_group_IT_number 110
_symmetry_cell_setting 'tetragonal'
loop_
_space_group_symop_operation_xyz
x,y,z
-y,1/2+x,1/4+z
-x,-y,z
y,1/2-x,1/4+z
-x,y,1/2+z
x,-y,1/2+z
1/2-y,-x,1/4+z
1/2+y,x,1/4+z
1/2+x,1/2+y,1/2+z
1/2-y,x,3/4+z
1/2-x,1/2-y,1/2+z
1/2+y,-x,3/4+z
1/2-x,1/2+y,z
1/2+x,1/2-y,z
-y,1/2-x,3/4+z
y,1/2+x,3/4+z
loop_
_atom_site_type_symbol
_atom_site_label
_atom_site_fract_x
_atom_site_fract_y
_atom_site_fract_z
Si Si1 0.132212 0.348676 0.264590
Si Si2 0.686946 0.123948 0.777099
Si Si3 0.528024 0.728061 0.838386
Si Si4 0.738590 0.318406 0.048719
Si Si5 0.971618 0.661137 0.343605
O O1 0.152488 0.357035 0.553860
O O2 0.142550 0.295201 0.190250
O O3 0.078299 0.357843 0.271248
O O4 0.160989 0.376879 0.051552
O O5 0.704893 0.074946 0.679948
O O6 0.731118 0.158184 0.777805
O O7 0.511369 0.715758 0.548724
O O8 0.533203 0.783335 0.845884
O O9 0.704745 0.277035 0.121377
O O10 0.990878 0.648183 0.626430
#
# Coordination Sequence:
#
# PCOD9554394 Si02
#       5
#    16  16  16  16  16
#     4  11  22  35  54  79 109 140 187 230 262 312
#     4  11  22  35  54  79 109 140 187 230 262 312
#     4  10  20  36  55  76 106 143 182 220 276 330
#     4  10  20  34  48  72 104 154 188 222 256 298
#     4  10  20  36  55  76 106 143 182 220 276 330
#
# _framework density 18.444806
#
# number of rings (size 3 to 8) (size 9 to 14) (size 15 to 20)
#    0.000    1.600    2.000    3.600    0.000    4.800 
#    0.000    0.000    0.000    0.000    0.000    0.000 
#    0.000   56.000    0.000    0.000    0.000    0.000 
#
# Total GULP energy -223223.621982 kJ/mol
# GULP energy per Si atom -5580.590550 kJ/mol
# Density = 1.840282 g / cm^3
# Si number density = 18.444806 Si / 1000 Ang^3
#
#
#
# Elastic Constant Matrix: (Units=GPa)
#
#
# Indices 1 2 3 4 5 6 
#
# 1 46.6162 -6.1767 3.8302 0.0000 0.0000 0.0000
# 2 -6.1767 46.6162 3.8302 0.0000 0.0000 0.0000
# 3 3.8302 3.8302 63.3763 0.0000 0.0000 0.0000
# 4 0.0000 0.0000 0.0000 26.3755 0.0000 0.0000
# 5 0.0000 0.0000 0.0000 0.0000 26.3755 0.0000
# 6 0.0000 0.0000 0.0000 0.0000 0.0000 9.1803
#
#
#
# Elastic Compliance Matrix: (Units=1/GPa)
#
#
# Indices 1 2 3 4 5 6 
#
# 1 0.021978 0.003036 -0.001512 0.000000 0.000000 0.000000
# 2 0.003036 0.021978 -0.001512 0.000000 0.000000 0.000000
# 3 -0.001512 -0.001512 0.015962 0.000000 0.000000 0.000000
# 4 0.000000 0.000000 0.000000 0.037914 0.000000 0.000000
# 5 0.000000 0.000000 0.000000 0.000000 0.037914 0.000000
# 6 0.000000 0.000000 0.000000 0.000000 0.000000 0.108929
#
#
# Mechanical properties :
#
#
# Convention : Reuss Voigt Hill
#
# Bulk Modulus (GPa) = 16.68230 17.73067 17.20648
# Shear Modulus (GPa) = 18.89422 22.72790 20.81106
#
# Velocity S-wave (km/s) = 3.20404 3.51410 3.36264
# Velocity P-wave (km/s) = 4.76990 5.10870 4.94220
#
# Compressibility (1/GPa) = 0.05994376
#
# Stress axis : x y z
#
# Youngs Moduli (GPa) = 45.49940 45.49940 62.65073
#
# Poissons Ratio (x) = -0.13815 0.09471
# Poissons Ratio (y) = -0.13815 0.09471
# Poissons Ratio (z) = 0.06879 0.06879
#
# Static dielectric constant tensor:
#      x y z
#    x 1.647240 0.000000 0.000000 
#    y 0.000000 1.647240 0.000000 
#    z 0.000000 0.000000 1.661880 
# 
# From -- ./inp_files/110.got.cif
#   From: 2010.05.17/outbox.cif.g08.bks.cpg/sg110_1_cif.got.tgz:110.got - 2010.05.20 10:54:03.
