data_PCOD9554742
_publ_section_title
;
Structure prediction by ZEFSAII (Michael W. Deem and Ramdas Pophale) SiO2 
 PCOD9554742
Probable space group: P -4 2 M 
;
_chemical_formula_sum "Si O2"
_cell_formula_units_Z 60
_cell_length_a 14.695297
_cell_length_b 14.695297
_cell_length_c 14.069401
_cell_angle_alpha 90.000000
_cell_angle_beta 90.000000
_cell_angle_gamma 90.000000
_cell_volume 3038.311823
_symmetry_space_group_name_H-M "P -4 2 M "
_symmetry_group_IT_number 111
_symmetry_cell_setting 'tetragonal'
loop_
_space_group_symop_operation_xyz
x,y,z
y,-x,-z
-x,-y,z
-y,x,-z
x,-y,-z
-x,y,-z
-y,-x,z
y,x,z
loop_
_atom_site_type_symbol
_atom_site_label
_atom_site_fract_x
_atom_site_fract_y
_atom_site_fract_z
Si Si1 0.243245 0.608532 0.158498
Si Si2 0.609425 0.899533 0.988370
Si Si3 0.859820 0.000000 0.500000
Si Si4 0.870431 0.728539 0.622310
Si Si5 0.379423 0.769332 0.645419
Si Si6 0.729535 0.584610 0.615563
Si Si7 0.396154 0.980296 0.613728
Si Si8 0.258865 0.597059 0.871438
O O1 0.314792 0.685209 0.131662
O O2 0.247403 0.597860 0.272031
O O3 0.269113 0.510714 0.115215
O O4 0.145910 0.630119 0.113009
O O5 0.634646 0.826282 0.068924
O O6 0.500000 0.906872 0.000000
O O7 0.648326 0.000000 0.000000
O O8 0.794868 0.933810 0.559525
O O9 0.929009 0.929009 0.448102
O O10 0.796729 0.796729 0.670233
O O11 0.806280 0.651769 0.571346
O O12 0.948304 0.667164 0.669474
O O13 0.296923 0.703078 0.615827
O O14 0.476782 0.738786 0.599907
O O15 0.368493 0.876609 0.629470
O O16 0.389509 0.757453 0.759151
O O17 0.631534 0.631534 0.598154
O O18 0.500000 0.000000 0.642081
O O19 0.390804 0.000000 0.500000
O O20 0.348398 0.651603 0.898563
#
# Coordination Sequence:
#
# PCOD9554742 Si02
#       8
#     8   8   4   8   8   8   8   8
#     4   9  17  29  48  73 104 141 181 217 255 313
#     4   9  17  29  44  68  99 139 182 218 259 299
#     4   9  18  32  51  76 102 132 171 216 275 338
#     4  10  19  33  54  76 103 133 167 216 270 320
#     4  10  21  36  55  81 109 143 180 222 274 329
#     4   9  18  33  52  79 110 144 182 222 270 322
#     4  11  22  36  54  78 105 134 178 220 265 322
#     4   9  18  32  49  74 108 137 171 217 265 316
#
# _framework density 19.747807000000002
#
# number of rings (size 3 to 8) (size 9 to 14) (size 15 to 20)
#    0.000    2.467    2.000    0.400    0.000    2.667 
#    2.400    2.667    0.000    2.400    0.000    0.000 
#    0.000    5.333    0.000    0.000    0.000    0.533 
#
# Total GULP energy -334320.464589 kJ/mol
# GULP energy per Si atom -5572.007743 kJ/mol
# Density = 1.970286 g / cm^3
# Si number density = 19.747807 Si / 1000 Ang^3
#
#
#
# Elastic Constant Matrix: (Units=GPa)
#
#
# Indices 1 2 3 4 5 6 
#
# 1 142.0984 82.1819 8.9140 0.0000 0.0000 0.0000
# 2 82.1819 142.0984 8.9119 0.0000 0.0000 0.0000
# 3 8.9140 8.9119 44.1241 0.0000 0.0000 0.0000
# 4 0.0000 0.0000 0.0000 17.3871 0.0000 0.0000
# 5 0.0000 0.0000 0.0000 0.0000 17.3875 0.0000
# 6 0.0000 0.0000 0.0000 0.0000 0.0000 39.8293
#
#
#
# Elastic Compliance Matrix: (Units=1/GPa)
#
#
# Indices 1 2 3 4 5 6 
#
# 1 0.010611 -0.006079 -0.000916 0.000000 0.000000 0.000000
# 2 -0.006079 0.010611 -0.000915 0.000000 0.000000 0.000000
# 3 -0.000916 -0.000915 0.023033 0.000000 0.000000 0.000000
# 4 0.000000 0.000000 0.000000 0.057514 0.000000 0.000000
# 5 0.000000 0.000000 0.000000 0.000000 0.057513 0.000000
# 6 0.000000 0.000000 0.000000 0.000000 0.000000 0.025107
#
#
# Mechanical properties :
#
#
# Convention : Reuss Voigt Hill
#
# Bulk Modulus (GPa) = 35.16831 58.70405 46.93618
# Shear Modulus (GPa) = 23.84517 30.14166 26.99341
#
# Velocity S-wave (km/s) = 3.47866 3.91106 3.70118
# Velocity P-wave (km/s) = 5.82942 7.08425 6.48725
#
# Compressibility (1/GPa) = 0.02843469
#
# Stress axis : x y z
#
# Youngs Moduli (GPa) = 94.24442 94.24504 43.41571
#
# Poissons Ratio (x) = 0.57294 0.03976
# Poissons Ratio (y) = 0.57293 0.03972
# Poissons Ratio (z) = 0.08630 0.08623
#
# Static dielectric constant tensor:
#      x y z
#    x 1.710570 0.000000 0.000000 
#    y 0.000000 1.710570 0.000000 
#    z 0.000000 0.000000 1.781990 
# 
# From -- ./inp_files/3428.got.cif
#   From: 2010.05.17/outbox.cif.g08.bks.cpg/sg111_2_cif.got.tgz:3428.got - 2010.05.20 10:56:05.
