data_PCOD9554962
_publ_section_title
;
Structure prediction by ZEFSAII (Michael W. Deem and Ramdas Pophale) SiO2 
 PCOD9554962
Probable space group: P -4 2 C
;
_chemical_formula_sum "Si O2"
_cell_formula_units_Z 56
_cell_length_a 25.148167
_cell_length_b 25.148167
_cell_length_c 5.614931
_cell_angle_alpha 90.000000
_cell_angle_beta 90.000000
_cell_angle_gamma 90.000000
_cell_volume 3551.052516
_symmetry_space_group_name_H-M "P -4 2 C"
_symmetry_group_IT_number 112
_symmetry_cell_setting 'tetragonal'
loop_
_space_group_symop_operation_xyz
x,y,z
y,-x,-z
-x,-y,z
-y,x,-z
x,-y,1/2-z
-x,y,1/2-z
-y,-x,1/2+z
y,x,1/2+z
loop_
_atom_site_type_symbol
_atom_site_label
_atom_site_fract_x
_atom_site_fract_y
_atom_site_fract_z
Si Si1 0.255150 0.222390 0.411089
Si Si2 0.252525 0.942343 0.285655
Si Si3 0.945648 0.640241 0.395990
Si Si4 0.061095 0.520830 0.994039
Si Si5 0.801287 0.863302 0.887116
Si Si6 0.062622 0.893975 0.273869
Si Si7 0.872033 0.302670 0.403017
O O1 0.251932 0.255613 0.657308
O O2 0.199274 0.188200 0.427811
O O3 0.302310 0.179259 0.428919
O O4 0.305795 0.947224 0.448594
O O5 0.209147 0.902587 0.391179
O O6 0.228235 0.000000 0.250000
O O7 0.275310 0.920187 0.041601
O O8 0.940299 0.584553 0.526854
O O9 0.895474 0.645809 0.218481
O O10 0.000000 0.637836 0.250000
O O11 0.086803 0.500000 0.750000
O O12 0.000000 0.500000 0.995137
O O13 0.082843 0.500000 0.250000
O O14 0.843405 0.896799 0.733450
O O15 0.740432 0.857790 0.796419
O O16 0.073380 0.922226 0.530525
O O17 0.000000 0.879681 0.250000
#
# Coordination Sequence:
#
# PCOD9554962 Si02
#       7
#     8   8   8   8   8   8   8
#     4  10  18  34  51  64  88 112 141 163 199 256
#     4  11  22  30  51  69  99 119 135 180 221 261
#     4  11  21  33  45  71  96 121 151 184 216 255
#     4  10  21  33  51  68  87 125 159 181 204 241
#     4  10  23  37  51  74  90 112 142 167 209 268
#     4  12  28  45  64  77  88 109 133 173 210 262
#     4  10  21  33  47  69  93 121 135 176 216 252
#
# _framework density 15.769973
#
# number of rings (size 3 to 8) (size 9 to 14) (size 15 to 20)
#    0.000    1.429    4.286    2.143    8.000    0.857 
#    0.000    0.000    0.000    0.000    0.000    0.000 
#    0.000    0.000    0.000    0.000    0.000    0.000 
#
# Total GULP energy -311947.373885 kJ/mol
# GULP energy per Si atom -5570.488819 kJ/mol
# Density = 1.573408 g / cm^3
# Si number density = 15.769973 Si / 1000 Ang^3
#
#
#
# Elastic Constant Matrix: (Units=GPa)
#
#
# Indices 1 2 3 4 5 6 
#
# 1 42.6025 5.7683 8.5544 0.0000 0.0000 0.0000
# 2 5.7683 42.6025 8.5544 0.0000 0.0000 0.0000
# 3 8.5544 8.5544 77.9613 0.0000 0.0000 0.0000
# 4 0.0000 0.0000 0.0000 16.4935 0.0000 0.0000
# 5 0.0000 0.0000 0.0000 0.0000 16.4935 0.0000
# 6 0.0000 0.0000 0.0000 0.0000 0.0000 1.7423
#
#
#
# Elastic Compliance Matrix: (Units=1/GPa)
#
#
# Indices 1 2 3 4 5 6 
#
# 1 0.024329 -0.002820 -0.002360 0.000000 0.000000 0.000000
# 2 -0.002820 0.024329 -0.002360 0.000000 0.000000 0.000000
# 3 -0.002360 -0.002360 0.013345 0.000000 0.000000 0.000000
# 4 0.000000 0.000000 0.000000 0.060630 0.000000 0.000000
# 5 0.000000 0.000000 0.000000 0.000000 0.060630 0.000000
# 6 0.000000 0.000000 0.000000 0.000000 0.000000 0.573944
#
#
# Mechanical properties :
#
#
# Convention : Reuss Voigt Hill
#
# Bulk Modulus (GPa) = 21.31224 23.21339 22.26281
# Shear Modulus (GPa) = 6.34577 16.29847 11.32212
#
# Velocity S-wave (km/s) = 2.00816 3.21832 2.68237
# Velocity P-wave (km/s) = 4.34979 5.34435 4.87251
#
# Compressibility (1/GPa) = 0.04692140
#
# Stress axis : x y z
#
# Youngs Moduli (GPa) = 41.10404 41.10404 74.93565
#
# Poissons Ratio (x) = 0.11592 0.17685
# Poissons Ratio (y) = 0.11592 0.17685
# Poissons Ratio (z) = 0.09701 0.09701
#
# Static dielectric constant tensor:
#      x y z
#    x 1.537680 0.000000 0.000000 
#    y 0.000000 1.537680 0.000000 
#    z 0.000000 0.000000 1.725430 
# 
# From -- ./inp_files/449.got.cif
#   From: 2010.05.17/outbox.cif.g08.bks.cpg/sg112_1_cif.got.tgz:449.got - 2010.05.20 10:59:04.
