data_PCOD9554298
_publ_section_title
;
Structure prediction by ZEFSAII (Michael W. Deem and Ramdas Pophale) SiO2 
 PCOD9554298
Probable space group: I 41 M D
;
_chemical_formula_sum "Si O2"
_cell_formula_units_Z 48
_cell_length_a 10.006020
_cell_length_b 10.006020
_cell_length_c 25.907914
_cell_angle_alpha 90.000000
_cell_angle_beta 90.000000
_cell_angle_gamma 90.000000
_cell_volume 2593.911652
_symmetry_space_group_name_H-M "I 41 M D"
_symmetry_group_IT_number 109
_symmetry_cell_setting 'tetragonal'
loop_
_space_group_symop_operation_xyz
x,y,z
-y,1/2+x,1/4+z
-x,-y,z
y,1/2-x,1/4+z
-x,y,z
x,-y,z
-y,1/2-x,1/4+z
y,1/2+x,1/4+z
1/2+x,1/2+y,1/2+z
1/2-y,x,3/4+z
1/2-x,1/2-y,1/2+z
1/2+y,-x,3/4+z
1/2-x,1/2+y,1/2+z
1/2+x,1/2-y,1/2+z
1/2-y,-x,3/4+z
1/2+y,x,3/4+z
loop_
_atom_site_type_symbol
_atom_site_label
_atom_site_fract_x
_atom_site_fract_y
_atom_site_fract_z
Si Si1 0.834019 0.500000 0.476591
Si Si2 0.000000 0.337475 0.329961
Si Si3 0.000000 0.663408 0.845470
Si Si4 0.340442 0.500000 0.974329
Si Si5 0.737001 0.246032 0.905879
O O1 0.761079 0.500000 0.531314
O O2 0.775505 0.374397 0.445954
O O3 0.000000 0.500000 0.477930
O O4 0.872716 0.294546 0.363608
O O5 0.000000 0.500000 0.320606
O O6 0.000000 0.702449 0.784567
O O7 0.872094 0.722502 0.875093
O O8 0.000000 0.500000 0.848476
O O9 0.500000 0.500000 0.975961
O O10 0.295328 0.626298 0.941043
#
# Coordination Sequence:
#
# PCOD9554298 Si02
#       5
#     8   8   8   8  16
#     4  12  26  46  73 103 133 183 234 284 353 430
#     4  12  26  46  71 106 136 178 231 290 357 420
#     4  11  26  43  66 102 137 179 235 279 340 405
#     4  11  22  41  70  99 128 182 234 279 332 395
#     4  12  23  46  68 100 142 174 227 291 339 415
#
# _framework density 18.504871000000001
#
# number of rings (size 3 to 8) (size 9 to 14) (size 15 to 20)
#    0.000    0.333    6.667    2.000    4.667    2.667 
#    0.000    1.667    0.000    0.000    0.000    0.000 
#    0.000    0.000    0.000    0.000    0.000    0.000 
#
# Total GULP energy -133914.398537 kJ/mol
# GULP energy per Si atom -5579.766606 kJ/mol
# Density = 1.846275 g / cm^3
# Si number density = 18.504871 Si / 1000 Ang^3
#
#
#
# Elastic Constant Matrix: (Units=GPa)
#
#
# Indices 1 2 3 4 5 6 
#
# 1 147.1087 40.7477 59.7250 0.0000 0.0000 0.0000
# 2 40.7477 147.1087 59.7250 0.0000 0.0000 0.0000
# 3 59.7250 59.7250 154.9778 0.0000 0.0000 0.0000
# 4 0.0000 0.0000 0.0000 144.2336 0.0000 0.0000
# 5 0.0000 0.0000 0.0000 0.0000 144.2336 0.0000
# 6 0.0000 0.0000 0.0000 0.0000 0.0000 28.5789
#
#
#
# Elastic Compliance Matrix: (Units=1/GPa)
#
#
# Indices 1 2 3 4 5 6 
#
# 1 0.008226 -0.001175 -0.002717 0.000000 0.000000 0.000000
# 2 -0.001175 0.008226 -0.002717 0.000000 0.000000 0.000000
# 3 -0.002717 -0.002717 0.008547 0.000000 0.000000 0.000000
# 4 0.000000 0.000000 0.000000 0.006933 0.000000 0.000000
# 5 0.000000 0.000000 0.000000 0.000000 0.006933 0.000000
# 6 0.000000 0.000000 0.000000 0.000000 0.000000 0.034991
#
#
# Mechanical properties :
#
#
# Convention : Reuss Voigt Hill
#
# Bulk Modulus (GPa) = 84.89149 85.51009 85.20079
# Shear Modulus (GPa) = 54.94268 82.67572 68.80920
#
# Velocity S-wave (km/s) = 5.45485 6.69140 6.10451
# Velocity P-wave (km/s) = 9.25466 10.29609 9.78923
#
# Compressibility (1/GPa) = 0.01177974
#
# Stress axis : x y z
#
# Youngs Moduli (GPa) = 121.55852 121.55852 117.00115
#
# Poissons Ratio (x) = 0.14289 0.31793
# Poissons Ratio (y) = 0.14289 0.31793
# Poissons Ratio (z) = 0.33031 0.33031
#
# Static dielectric constant tensor:
#      x y z
#    x 1.617680 0.000000 0.000000 
#    y 0.000000 1.617680 0.000000 
#    z 0.000000 0.000000 1.661690 
# 
# From -- ./inp_files/2936.got.cif
#   From: 2010.05.17/outbox.cif.g08.bks.cpg/sg109_2_cif.got.tgz:2936.got - 2010.05.20 10:51:12.
