data_PCOD9554628
_publ_section_title
;
Structure prediction by ZEFSAII (Michael W. Deem and Ramdas Pophale) SiO2 
 PCOD9554628
Probable space group: I 41 C D
;
_chemical_formula_sum "Si O2"
_cell_formula_units_Z 32
_cell_length_a 9.299145
_cell_length_b 9.299145
_cell_length_c 13.646161
_cell_angle_alpha 90.000000
_cell_angle_beta 90.000000
_cell_angle_gamma 90.000000
_cell_volume 1180.039460
_symmetry_space_group_name_H-M "I 41 C D"
_symmetry_group_IT_number 110
_symmetry_cell_setting 'tetragonal'
loop_
_space_group_symop_operation_xyz
x,y,z
-y,1/2+x,1/4+z
-x,-y,z
y,1/2-x,1/4+z
-x,y,1/2+z
x,-y,1/2+z
1/2-y,-x,1/4+z
1/2+y,x,1/4+z
1/2+x,1/2+y,1/2+z
1/2-y,x,3/4+z
1/2-x,1/2-y,1/2+z
1/2+y,-x,3/4+z
1/2-x,1/2+y,z
1/2+x,1/2-y,z
-y,1/2-x,3/4+z
y,1/2+x,3/4+z
loop_
_atom_site_type_symbol
_atom_site_label
_atom_site_fract_x
_atom_site_fract_y
_atom_site_fract_z
Si Si1 0.156514 0.056590 0.073080
Si Si2 0.374694 0.598758 0.775231
O O1 0.180549 0.991315 0.181797
O O2 0.159637 0.228820 0.072275
O O3 0.000000 0.000000 0.048427
O O4 0.264521 0.974094 0.000997
O O5 0.500000 0.500000 0.824768
#
# Coordination Sequence:
#
# PCOD9554628 Si02
#       2
#    16  16
#     4  11  27  47  82 120 167 227 284 364 432 520
#     4  11  27  51  80 122 169 225 289 360 438 519
#
# _framework density 27.117739
#
# number of rings (size 3 to 8) (size 9 to 14) (size 15 to 20)
#    0.000    1.000    0.000    3.000   21.000    2.000 
#    0.000    0.000    0.000    0.000    0.000    0.000 
#    0.000    0.000    0.000    0.000    0.000    0.000 
#
# Total GULP energy -89480.044326 kJ/mol
# GULP energy per Si atom -5592.502770 kJ/mol
# Density = 2.705602 g / cm^3
# Si number density = 27.117739 Si / 1000 Ang^3
#
#
#
# Elastic Constant Matrix: (Units=GPa)
#
#
# Indices 1 2 3 4 5 6 
#
# 1 232.6877 42.5485 7.1394 0.0000 0.0000 0.0000
# 2 42.5485 232.6877 7.1394 0.0000 0.0000 0.0000
# 3 7.1394 7.1394 99.8093 0.0000 0.0000 0.0000
# 4 0.0000 0.0000 0.0000 25.6056 0.0000 0.0000
# 5 0.0000 0.0000 0.0000 0.0000 25.6056 0.0000
# 6 0.0000 0.0000 0.0000 0.0000 0.0000 50.1384
#
#
#
# Elastic Compliance Matrix: (Units=1/GPa)
#
#
# Indices 1 2 3 4 5 6 
#
# 1 0.004453 -0.000806 -0.000261 0.000000 0.000000 0.000000
# 2 -0.000806 0.004453 -0.000261 0.000000 0.000000 0.000000
# 3 -0.000261 -0.000261 0.010056 0.000000 0.000000 0.000000
# 4 0.000000 0.000000 0.000000 0.039054 0.000000 0.000000
# 5 0.000000 0.000000 0.000000 0.000000 0.039054 0.000000
# 6 0.000000 0.000000 0.000000 0.000000 0.000000 0.019945
#
#
# Mechanical properties :
#
#
# Convention : Reuss Voigt Hill
#
# Bulk Modulus (GPa) = 61.32503 75.42660 68.37582
# Shear Modulus (GPa) = 39.96592 54.16043 47.06317
#
# Velocity S-wave (km/s) = 3.84317 4.47389 4.17047
# Velocity P-wave (km/s) = 6.50820 7.38664 6.96129
#
# Compressibility (1/GPa) = 0.01630655
#
# Stress axis : x y z
#
# Youngs Moduli (GPa) = 224.56568 224.56568 99.43887
#
# Poissons Ratio (x) = 0.18106 0.02594
# Poissons Ratio (y) = 0.18106 0.02594
# Poissons Ratio (z) = 0.05858 0.05858
#
# Static dielectric constant tensor:
#      x y z
#    x 2.101730 0.000000 0.000000 
#    y 0.000000 2.101730 0.000000 
#    z 0.000000 0.000000 2.258510 
# 
# From -- ./inp_files/1886.got.cif
#   From: 2010.05.17/outbox.cif.g08.bks.cpg/sg110_1_cif.got.tgz:1886.got - 2010.05.20 10:54:03.
