data_PCOD9554114
_publ_section_title
;
Structure prediction by ZEFSAII (Michael W. Deem and Ramdas Pophale) SiO2 
 PCOD9554114
Probable space group: I 41 M D
;
_chemical_formula_sum "Si O2"
_cell_formula_units_Z 72
_cell_length_a 11.846095
_cell_length_b 11.846095
_cell_length_c 29.777747
_cell_angle_alpha 90.000000
_cell_angle_beta 90.000000
_cell_angle_gamma 90.000000
_cell_volume 4178.710246
_symmetry_space_group_name_H-M "I 41 M D"
_symmetry_group_IT_number 109
_symmetry_cell_setting 'tetragonal'
loop_
_space_group_symop_operation_xyz
x,y,z
-y,1/2+x,1/4+z
-x,-y,z
y,1/2-x,1/4+z
-x,y,z
x,-y,z
-y,1/2-x,1/4+z
y,1/2+x,1/4+z
1/2+x,1/2+y,1/2+z
1/2-y,x,3/4+z
1/2-x,1/2-y,1/2+z
1/2+y,-x,3/4+z
1/2-x,1/2+y,1/2+z
1/2+x,1/2-y,1/2+z
1/2-y,-x,3/4+z
1/2+y,x,3/4+z
loop_
_atom_site_type_symbol
_atom_site_label
_atom_site_fract_x
_atom_site_fract_y
_atom_site_fract_z
Si Si1 0.868668 0.000000 0.860361
Si Si2 0.866908 0.631648 0.462136
Si Si3 0.240720 0.718787 0.139884
Si Si4 0.234210 0.869719 0.052789
Si Si5 0.000000 0.234891 0.020415
Si Si6 0.500000 0.135791 0.425057
O O1 0.827523 0.885630 0.882835
O O2 0.829093 0.000000 0.808999
O O3 0.000000 0.000000 0.862868
O O4 0.843988 0.500000 0.448359
O O5 0.801567 0.723037 0.432097
O O6 0.824692 0.641162 0.513127
O O7 0.000000 0.648336 0.458275
O O8 0.263800 0.790106 0.094774
O O9 0.323551 0.614135 0.149539
O O10 0.113283 0.836339 0.030657
O O11 0.227867 0.000000 0.067700
O O12 0.000000 0.293890 0.971974
O O13 0.500000 0.000000 0.431403
#
# Coordination Sequence:
#
# PCOD9554114 Si02
#       6
#     8  16  16  16   8   8
#     4  10  19  33  57  86 115 145 191 245 309 354
#     4  10  20  35  57  86 118 151 191 242 301 358
#     4  11  21  37  58  88 120 156 193 250 296 362
#     4  10  21  36  59  91 121 155 193 242 305 367
#     4  10  20  36  58  87 120 155 198 252 301 356
#     4  12  25  40  60  86 120 168 212 250 297 361
#
# _framework density 17.230195999999999
#
# number of rings (size 3 to 8) (size 9 to 14) (size 15 to 20)
#    0.000    1.556    4.444    1.333    0.000    0.889 
#    2.000    0.000    0.000    2.000    0.000    0.000 
#    0.000    0.000    0.000    0.000    0.000    0.000 
#
# Total GULP energy -200768.134370 kJ/mol
# GULP energy per Si atom -5576.892621 kJ/mol
# Density = 1.719098 g / cm^3
# Si number density = 17.230196 Si / 1000 Ang^3
#
#
#
# Elastic Constant Matrix: (Units=GPa)
#
#
# Indices 1 2 3 4 5 6 
#
# 1 99.3895 35.2327 46.7425 0.0000 0.0000 0.0000
# 2 35.2327 99.3895 46.7425 0.0000 0.0000 0.0000
# 3 46.7425 46.7425 109.2870 0.0000 0.0000 0.0000
# 4 0.0000 0.0000 0.0000 -33.8707 0.0000 0.0000
# 5 0.0000 0.0000 0.0000 0.0000 -33.8707 0.0000
# 6 0.0000 0.0000 0.0000 0.0000 0.0000 21.5584
#
#
#
# Elastic Compliance Matrix: (Units=1/GPa)
#
#
# Indices 1 2 3 4 5 6 
#
# 1 0.013077 -0.002510 -0.004519 0.000000 0.000000 0.000000
# 2 -0.002510 0.013077 -0.004519 0.000000 0.000000 0.000000
# 3 -0.004519 -0.004519 0.013016 0.000000 0.000000 0.000000
# 4 0.000000 0.000000 0.000000 -0.029524 0.000000 0.000000
# 5 0.000000 0.000000 0.000000 0.000000 -0.029524 0.000000
# 6 0.000000 0.000000 0.000000 0.000000 0.000000 0.046386
#
#
# Mechanical properties :
#
#
# Convention : Reuss Voigt Hill
#
# Bulk Modulus (GPa) = 62.22082 62.83347 62.52715
# Shear Modulus (GPa) = 90.97215 2.71996 46.84606
#
# Velocity S-wave (km/s) = 7.27411 1.25779 5.21990
# Velocity P-wave (km/s) = 10.33151 6.21736 8.52631
#
# Compressibility (1/GPa) = 0.01607179
#
# Stress axis : x y z
#
# Youngs Moduli (GPa) = 76.47197 76.47198 76.82795
#
# Poissons Ratio (x) = 0.19196 0.34721
# Poissons Ratio (y) = 0.19196 0.34721
# Poissons Ratio (z) = 0.34560 0.34560
#
# Static dielectric constant tensor:
#      x y z
#    x 1.569960 0.000000 0.000000 
#    y 0.000000 1.569960 0.000000 
#    z 0.000000 0.000000 1.582790 
# 
# From -- ./inp_files/4891.got.cif
#   From: 2010.05.17/outbox.cif.g08.bks.cpg/sg109_3_cif.got.tgz:4891.got - 2010.05.20 10:51:12.
