data_PCOD9554032
_publ_section_title
;
Structure prediction by ZEFSAII (Michael W. Deem and Ramdas Pophale) SiO2 
 PCOD9554032
Probable space group: I 4 C M
;
_chemical_formula_sum "Si O2"
_cell_formula_units_Z 96
_cell_length_a 15.397592
_cell_length_b 15.397592
_cell_length_c 22.766261
_cell_angle_alpha 90.000000
_cell_angle_beta 90.000000
_cell_angle_gamma 90.000000
_cell_volume 5397.558099
_symmetry_space_group_name_H-M "I 4 C M"
_symmetry_group_IT_number 108
_symmetry_cell_setting 'tetragonal'
loop_
_space_group_symop_operation_xyz
x,y,z
-y,x,z
-x,-y,z
y,-x,z
-x,y,1/2+z
x,-y,1/2+z
-y,-x,1/2+z
y,x,1/2+z
1/2+x,1/2+y,1/2+z
1/2-y,1/2+x,1/2+z
1/2-x,1/2-y,1/2+z
1/2+y,1/2-x,1/2+z
1/2-x,1/2+y,z
1/2+x,1/2-y,z
1/2-y,1/2-x,z
1/2+y,1/2+x,z
loop_
_atom_site_type_symbol
_atom_site_label
_atom_site_fract_x
_atom_site_fract_y
_atom_site_fract_z
Si Si1 0.182168 0.832111 0.888480
Si Si2 0.817832 0.167889 0.143122
Si Si3 0.568408 0.931593 0.944579
Si Si4 0.759358 0.988274 0.086141
Si Si5 0.568407 0.068407 0.587027
Si Si6 0.511725 0.740642 0.945461
Si Si7 0.604985 0.604984 0.765801
O O1 0.252441 0.752441 0.892039
O O2 0.094126 0.815526 0.925462
O O3 0.149543 0.852330 0.822709
O O4 0.220913 0.920754 0.914849
O O5 0.747559 0.247559 0.139563
O O6 0.905874 0.184473 0.106140
O O7 0.850458 0.147671 0.208893
O O8 0.779087 0.079246 0.116754
O O9 0.540785 0.836600 0.926975
O O10 0.500000 0.000000 0.921818
O O11 0.567123 0.932878 0.015803
O O12 0.663401 0.959214 0.104630
O O13 0.764052 0.998737 0.015801
O O14 0.500000 0.000000 0.609787
O O15 0.500000 0.618661 0.765801
#
# Coordination Sequence:
#
# PCOD9554032 Si02
#       7
#    16  16   8  16   8  16  16
#     4  12  24  42  66  92 127 167 213 264 314 372
#     4  12  24  42  66  92 127 167 213 264 314 372
#     4   9  18  36  58  85 124 167 207 244 300 377
#     4  11  23  38  62  95 130 167 205 254 316 380
#     4   9  18  36  58  85 124 167 207 244 300 377
#     4  11  23  38  62  95 130 167 205 254 316 380
#     4  11  23  44  68  88 117 165 216 264 320 370
#
# _framework density 17.785820999999999
#
# number of rings (size 3 to 8) (size 9 to 14) (size 15 to 20)
#    0.000    1.000    5.000    2.500    0.000    4.000 
#    0.000    1.667    0.000    0.000    0.000    2.333 
#    0.000    0.000    0.000    0.000    0.000    0.000 
#
# Total GULP energy -267821.116862 kJ/mol
# GULP energy per Si atom -5579.606601 kJ/mol
# Density = 1.774534 g / cm^3
# Si number density = 17.785821 Si / 1000 Ang^3
#
#
#
# Elastic Constant Matrix: (Units=GPa)
#
#
# Indices 1 2 3 4 5 6 
#
# 1 109.9741 50.2152 39.2631 0.0000 0.0000 0.0001
# 2 50.2152 109.9741 39.2631 -0.0001 0.0000 -0.0001
# 3 39.2631 39.2631 95.9456 -0.0001 0.0000 0.0000
# 4 0.0000 -0.0001 -0.0001 -953.8070 -0.0006 0.0000
# 5 0.0000 0.0000 0.0000 -0.0006 -953.8021 0.0000
# 6 0.0001 -0.0001 0.0000 0.0000 0.0000 44.2861
#
#
#
# Elastic Compliance Matrix: (Units=1/GPa)
#
#
# Indices 1 2 3 4 5 6 
#
# 1 0.012272 -0.004462 -0.003196 0.000000 0.000000 0.000000
# 2 -0.004462 0.012272 -0.003196 0.000000 0.000000 0.000000
# 3 -0.003196 -0.003196 0.013038 0.000000 0.000000 0.000000
# 4 0.000000 0.000000 0.000000 -0.001048 0.000000 0.000000
# 5 0.000000 0.000000 0.000000 0.000000 -0.001048 0.000000
# 6 0.000000 0.000000 0.000000 0.000000 0.000000 0.022580
#
#
# Mechanical properties :
#
#
# Convention : Reuss Voigt Hill
#
# Bulk Modulus (GPa) = 62.99744 63.70849 63.35297
# Shear Modulus (GPa) = 58.77969 -360.18777 -150.70404
#
# Velocity S-wave (km/s) = 5.75503 -14.24618 -9.21502
# Velocity P-wave (km/s) = 8.92510 15.32016 8.80482
#
# Compressibility (1/GPa) = 0.01587366
#
# Stress axis : x y z
#
# Youngs Moduli (GPa) = 81.48942 81.48942 76.69847
#
# Poissons Ratio (x) = 0.36364 0.24510
# Poissons Ratio (y) = 0.36364 0.24510
# Poissons Ratio (z) = 0.26041 0.26041
#
# Static dielectric constant tensor:
#      x y z
#    x 1.629430 0.000000 0.000000 
#    y 0.000000 1.629430 0.000000 
#    z 0.000000 0.000000 1.586680 
# 
# From -- ./inp_files/2931.got.cif
#   From: 2010.05.17/outbox.cif.g08.bks.cpg/sg108_2_cif.got.tgz:2931.got - 2010.05.20 10:49:05.
