data_PCOD9554483
_publ_section_title
;
Structure prediction by ZEFSAII (Michael W. Deem and Ramdas Pophale) SiO2 
 PCOD9554483
Probable space group: I 41 C D
;
_chemical_formula_sum "Si O2"
_cell_formula_units_Z 112
_cell_length_a 13.882881
_cell_length_b 13.882881
_cell_length_c 27.217256
_cell_angle_alpha 90.000000
_cell_angle_beta 90.000000
_cell_angle_gamma 90.000000
_cell_volume 5245.701093
_symmetry_space_group_name_H-M "I 41 C D"
_symmetry_group_IT_number 110
_symmetry_cell_setting 'tetragonal'
loop_
_space_group_symop_operation_xyz
x,y,z
-y,1/2+x,1/4+z
-x,-y,z
y,1/2-x,1/4+z
-x,y,1/2+z
x,-y,1/2+z
1/2-y,-x,1/4+z
1/2+y,x,1/4+z
1/2+x,1/2+y,1/2+z
1/2-y,x,3/4+z
1/2-x,1/2-y,1/2+z
1/2+y,-x,3/4+z
1/2-x,1/2+y,z
1/2+x,1/2-y,z
-y,1/2-x,3/4+z
y,1/2+x,3/4+z
loop_
_atom_site_type_symbol
_atom_site_label
_atom_site_fract_x
_atom_site_fract_y
_atom_site_fract_z
Si Si1 0.200099 0.250779 0.111280
Si Si2 0.000000 0.000000 0.983290
Si Si3 0.302698 0.575961 0.472907
Si Si4 0.000000 0.000000 0.679148
Si Si5 0.320056 0.107245 0.959710
Si Si6 0.438089 0.295588 0.521928
Si Si7 0.760686 0.347400 0.291628
Si Si8 0.622637 0.817568 0.423471
O O1 0.145897 0.196281 0.154676
O O2 0.302546 0.216083 0.090333
O O3 0.233865 0.352848 0.134357
O O4 0.138380 0.239895 0.061995
O O5 0.949061 0.911356 0.013032
O O6 0.086882 0.943146 0.955763
O O7 0.258053 0.470378 0.475045
O O8 0.312339 0.632832 0.524622
O O9 0.225078 0.635645 0.440705
O O10 0.052625 0.920588 0.711484
O O11 0.908448 0.942634 0.654988
O O12 0.318428 0.195733 0.995789
O O13 0.539449 0.264929 0.544377
O O14 0.420744 0.237817 0.470928
#
# Coordination Sequence:
#
# PCOD9554483 Si02
#       8
#    16   8  16   8  16  16  16  16
#     4  12  24  40  70 103 138 179 233 293 349 413
#     4  10  22  41  70  97 134 178 236 283 350 423
#     4  10  21  41  70  93 131 180 222 278 349 414
#     4  10  24  43  70  97 138 184 240 275 354 435
#     4  11  23  44  70  97 136 185 229 285 355 427
#     4  11  24  44  68 100 140 184 235 288 352 420
#     4  11  23  44  68  99 138 180 227 290 349 421
#     4  11  22  45  70  98 138 189 225 290 354 421
#
# _framework density 21.350816999999999
#
# number of rings (size 3 to 8) (size 9 to 14) (size 15 to 20)
#    0.000    1.143    4.286    1.714    4.000    0.571 
#    5.143    0.000    0.000    0.857    0.000    0.000 
#    0.000    0.000    0.000    0.000    0.000    0.000 
#
# Total GULP energy -311879.313648 kJ/mol
# GULP energy per Si atom -5569.273458 kJ/mol
# Density = 2.130222 g / cm^3
# Si number density = 21.350817 Si / 1000 Ang^3
#
#
#
# Elastic Constant Matrix: (Units=GPa)
#
#
# Indices 1 2 3 4 5 6 
#
# 1 124.5964 48.0277 35.0992 0.0000 0.0000 0.0000
# 2 48.0277 124.5964 35.0992 0.0000 0.0000 0.0000
# 3 35.0992 35.0992 52.6422 0.0000 0.0000 0.0000
# 4 0.0000 0.0000 0.0000 -8.2508 0.0000 0.0000
# 5 0.0000 0.0000 0.0000 0.0000 -8.2508 0.0000
# 6 0.0000 0.0000 0.0000 0.0000 0.0000 50.6403
#
#
#
# Elastic Compliance Matrix: (Units=1/GPa)
#
#
# Indices 1 2 3 4 5 6 
#
# 1 0.010504 -0.002556 -0.005299 0.000000 0.000000 0.000000
# 2 -0.002556 0.010504 -0.005299 0.000000 0.000000 0.000000
# 3 -0.005299 -0.005299 0.026063 0.000000 0.000000 0.000000
# 4 0.000000 0.000000 0.000000 -0.121200 0.000000 0.000000
# 5 0.000000 0.000000 0.000000 0.000000 -0.121200 0.000000
# 6 0.000000 0.000000 0.000000 0.000000 0.000000 0.019747
#
#
# Mechanical properties :
#
#
# Convention : Reuss Voigt Hill
#
# Bulk Modulus (GPa) = 48.16611 59.80971 53.98791
# Shear Modulus (GPa) = -35.12413 19.06831 -8.02791
#
# Velocity S-wave (km/s) = -4.06038 2.99171 -1.94118
# Velocity P-wave (km/s) = 0.79128 6.32514 4.50741
#
# Compressibility (1/GPa) = 0.02076149
#
# Stress axis : x y z
#
# Youngs Moduli (GPa) = 95.20147 95.20147 38.36888
#
# Poissons Ratio (x) = 0.24335 0.20333
# Poissons Ratio (y) = 0.24335 0.20333
# Poissons Ratio (z) = 0.50450 0.50450
#
# Static dielectric constant tensor:
#      x y z
#    x 1.897690 0.000000 0.000000 
#    y 0.000000 1.897690 0.000000 
#    z 0.000000 0.000000 1.798090 
# 
# From -- ./inp_files/3005.got.cif
#   From: 2010.05.17/outbox.cif.g08.bks.cpg/sg110_2_cif.got.tgz:3005.got - 2010.05.20 10:54:03.
