data_PCOD9554352
_publ_section_title
;
Structure prediction by ZEFSAII (Michael W. Deem and Ramdas Pophale) SiO2 
 PCOD9554352
Probable space group: I 41 C D
;
_chemical_formula_sum "Si O2"
_cell_formula_units_Z 120
_cell_length_a 21.809659
_cell_length_b 21.809659
_cell_length_c 12.055358
_cell_angle_alpha 90.000000
_cell_angle_beta 90.000000
_cell_angle_gamma 90.000000
_cell_volume 5734.266362
_symmetry_space_group_name_H-M "I 41 C D"
_symmetry_group_IT_number 110
_symmetry_cell_setting 'tetragonal'
loop_
_space_group_symop_operation_xyz
x,y,z
-y,1/2+x,1/4+z
-x,-y,z
y,1/2-x,1/4+z
-x,y,1/2+z
x,-y,1/2+z
1/2-y,-x,1/4+z
1/2+y,x,1/4+z
1/2+x,1/2+y,1/2+z
1/2-y,x,3/4+z
1/2-x,1/2-y,1/2+z
1/2+y,-x,3/4+z
1/2-x,1/2+y,z
1/2+x,1/2-y,z
-y,1/2-x,3/4+z
y,1/2+x,3/4+z
loop_
_atom_site_type_symbol
_atom_site_label
_atom_site_fract_x
_atom_site_fract_y
_atom_site_fract_z
Si Si1 0.335436 0.547249 0.929100
Si Si2 0.624623 0.942258 0.271038
Si Si3 0.395743 0.581507 0.153710
Si Si4 0.697375 0.982559 0.925668
Si Si5 0.000000 0.500000 0.835702
Si Si6 0.339772 0.382666 0.212653
Si Si7 0.765668 0.604250 0.037395
Si Si8 0.841852 0.909376 0.377662
O O1 0.367002 0.418543 0.531100
O O2 0.261839 0.551451 0.930424
O O3 0.354304 0.569263 0.808171
O O4 0.350684 0.475288 0.937304
O O5 0.617143 0.892913 0.370422
O O6 0.630858 0.900130 0.163938
O O7 0.682339 0.982735 0.308821
O O8 0.561381 0.981315 0.267923
O O9 0.437044 0.640493 0.180515
O O10 0.442310 0.523788 0.156731
O O11 0.343743 0.579331 0.247335
O O12 0.703378 0.037354 0.016501
O O13 0.344921 0.317915 0.276604
O O14 0.276389 0.393239 0.146696
O O15 0.720172 0.614465 0.932318
#
# Coordination Sequence:
#
# PCOD9554352 Si02
#       8
#    16  16  16  16   8  16  16  16
#     4  11  23  38  62  89 128 169 209 266 324 388
#     4   9  18  38  56  89 118 159 210 247 324 390
#     4  11  23  40  58  96 131 162 219 266 340 392
#     4   9  22  40  60  91 125 168 210 265 322 406
#     4  10  18  36  56  88 132 154 200 258 328 402
#     4  10  21  39  66  85 123 161 219 263 312 397
#     4   9  21  43  64  91 117 171 218 262 332 385
#     4  10  21  39  64  87 125 169 204 270 322 399
#
# _framework density 20.926825999999998
#
# number of rings (size 3 to 8) (size 9 to 14) (size 15 to 20)
#    0.000    2.133    1.333    0.800    5.600    1.600 
#   19.200    1.333    0.000    0.000    0.000    0.000 
#    0.000    0.000    0.000    0.000    0.000    0.000 
#
# Total GULP energy -334592.500262 kJ/mol
# GULP energy per Si atom -5576.541671 kJ/mol
# Density = 2.087920 g / cm^3
# Si number density = 20.926826 Si / 1000 Ang^3
#
#
#
# Elastic Constant Matrix: (Units=GPa)
#
#
# Indices 1 2 3 4 5 6 
#
# 1 67.4410 26.2106 15.0584 0.0000 0.0000 0.0000
# 2 26.2106 67.4410 15.0584 0.0000 0.0000 0.0000
# 3 15.0584 15.0584 81.6956 0.0000 0.0000 0.0000
# 4 0.0000 0.0000 0.0000 17.1338 0.0000 0.0000
# 5 0.0000 0.0000 0.0000 0.0000 17.1338 0.0000
# 6 0.0000 0.0000 0.0000 0.0000 0.0000 27.8073
#
#
#
# Elastic Compliance Matrix: (Units=1/GPa)
#
#
# Indices 1 2 3 4 5 6 
#
# 1 0.017802 -0.006452 -0.002092 0.000000 0.000000 0.000000
# 2 -0.006452 0.017802 -0.002092 0.000000 0.000000 0.000000
# 3 -0.002092 -0.002092 0.013012 0.000000 0.000000 0.000000
# 4 0.000000 0.000000 0.000000 0.058364 0.000000 0.000000
# 5 0.000000 0.000000 0.000000 0.000000 0.058364 0.000000
# 6 0.000000 0.000000 0.000000 0.000000 0.000000 0.035962
#
#
# Mechanical properties :
#
#
# Convention : Reuss Voigt Hill
#
# Bulk Modulus (GPa) = 36.57051 36.58138 36.57595
# Shear Modulus (GPa) = 21.58025 23.09833 22.33929
#
# Velocity S-wave (km/s) = 3.21475 3.32590 3.27080
# Velocity P-wave (km/s) = 5.59400 5.68044 5.63739
#
# Compressibility (1/GPa) = 0.02734444
#
# Stress axis : x y z
#
# Youngs Moduli (GPa) = 56.17238 56.17238 76.85301
#
# Poissons Ratio (x) = 0.36240 0.16079
# Poissons Ratio (y) = 0.36240 0.16079
# Poissons Ratio (z) = 0.11752 0.11752
#
# Static dielectric constant tensor:
#      x y z
#    x 1.779300 0.000000 0.000000 
#    y 0.000000 1.779300 0.000000 
#    z 0.000000 0.000000 1.774030 
# 
# From -- ./inp_files/1436.got.cif
#   From: 2010.05.17/outbox.cif.g08.bks.cpg/sg110_1_cif.got.tgz:1436.got - 2010.05.20 10:54:03.
