data_PCOD9554727
_publ_section_title
;
Structure prediction by ZEFSAII (Michael W. Deem and Ramdas Pophale) SiO2 
 PCOD9554727
Probable space group: P -4 2 M 
;
_chemical_formula_sum "Si O2"
_cell_formula_units_Z 64
_cell_length_a 12.806819
_cell_length_b 12.806819
_cell_length_c 23.970170
_cell_angle_alpha 90.000000
_cell_angle_beta 90.000000
_cell_angle_gamma 90.000000
_cell_volume 3931.458154
_symmetry_space_group_name_H-M "P -4 2 M "
_symmetry_group_IT_number 111
_symmetry_cell_setting 'tetragonal'
loop_
_space_group_symop_operation_xyz
x,y,z
y,-x,-z
-x,-y,z
-y,x,-z
x,-y,-z
-x,y,-z
-y,-x,z
y,x,z
loop_
_atom_site_type_symbol
_atom_site_label
_atom_site_fract_x
_atom_site_fract_y
_atom_site_fract_z
Si Si1 0.500001 0.671925 0.432890
Si Si2 0.291918 0.881200 0.714196
Si Si3 0.500001 0.120577 0.360604
Si Si4 0.877786 0.703978 0.937668
Si Si5 0.296023 0.122215 0.062332
Si Si6 0.791522 0.620111 0.174206
Si Si7 0.379887 0.791525 0.174207
Si Si8 0.291915 0.118798 0.714195
O O1 0.500000 0.681560 0.500000
O O2 0.398686 0.601315 0.417435
O O3 0.601316 0.601316 0.417434
O O4 0.500000 0.785074 0.404669
O O5 0.203904 0.796097 0.699995
O O6 0.396130 0.868047 0.677153
O O7 0.326042 0.861657 0.778259
O O8 0.254522 0.999998 0.707376
O O9 0.603874 0.131952 0.322849
O O10 0.500000 0.000000 0.382390
O O11 0.808480 0.808480 0.933062
O O12 0.842851 0.632313 0.886549
O O13 0.000001 0.726928 0.933051
O O14 0.858750 0.659785 0.999999
O O15 0.191522 0.191522 0.066937
O O16 0.367689 0.157151 0.113450
O O17 0.683289 0.683289 0.173517
O O18 0.776949 0.499999 0.188424
O O19 0.316709 0.683292 0.173519
O O20 0.326041 0.861659 0.221743
O O21 0.203899 0.203899 0.699994
#
# Coordination Sequence:
#
# PCOD9554727 Si02
#       8
#     8   8   8   8   8   8   8   8
#     4   9  18  33  53  77 107 141 172 206 250 294
#     4  10  20  33  50  73 100 132 167 204 250 298
#     4  10  19  32  52  76 104 136 171 211 247 288
#     4   9  18  31  47  68  91 117 151 191 239 294
#     4   9  18  31  47  68  91 117 151 191 239 294
#     4  10  20  34  50  67  92 122 155 200 247 294
#     4  10  20  34  50  67  92 122 155 200 247 294
#     4  10  20  33  50  73 100 132 167 204 250 298
#
# _framework density 16.278946000000001
#
# number of rings (size 3 to 8) (size 9 to 14) (size 15 to 20)
#    0.000    2.375    1.250    1.875    0.000    3.000 
#    0.000    2.500    0.000    4.500    0.000    3.500 
#    0.000    0.000    0.000   23.250    0.000    0.000 
#
# Total GULP energy -356687.967623 kJ/mol
# GULP energy per Si atom -5573.249494 kJ/mol
# Density = 1.624189 g / cm^3
# Si number density = 16.278946 Si / 1000 Ang^3
#
#
#
# Elastic Constant Matrix: (Units=GPa)
#
#
# Indices 1 2 3 4 5 6 
#
# 1 113.3955 47.5707 33.6771 0.0000 0.0000 0.0000
# 2 47.5707 113.3971 33.6771 0.0000 0.0000 0.0000
# 3 33.6771 33.6771 51.8808 0.0000 0.0000 0.0000
# 4 0.0000 0.0000 0.0000 24.0638 0.0000 0.0000
# 5 0.0000 0.0000 0.0000 0.0000 24.0637 0.0000
# 6 0.0000 0.0000 0.0000 0.0000 0.0000 12.0885
#
#
#
# Elastic Compliance Matrix: (Units=1/GPa)
#
#
# Indices 1 2 3 4 5 6 
#
# 1 0.011860 -0.003331 -0.005537 0.000000 0.000000 0.000000
# 2 -0.003331 0.011860 -0.005536 0.000000 0.000000 0.000000
# 3 -0.005537 -0.005536 0.026463 0.000000 0.000000 0.000000
# 4 0.000000 0.000000 0.000000 0.041556 0.000000 0.000000
# 5 0.000000 0.000000 0.000000 0.000000 0.041556 0.000000
# 6 0.000000 0.000000 0.000000 0.000000 0.000000 0.082723
#
#
# Mechanical properties :
#
#
# Convention : Reuss Voigt Hill
#
# Bulk Modulus (GPa) = 46.78354 56.50257 51.64305
# Shear Modulus (GPa) = 19.84501 22.95977 21.40239
#
# Velocity S-wave (km/s) = 3.49529 3.75960 3.62985
# Velocity P-wave (km/s) = 6.71494 7.32328 7.02570
#
# Compressibility (1/GPa) = 0.02137504
#
# Stress axis : x y z
#
# Youngs Moduli (GPa) = 84.31362 84.31506 37.78917
#
# Poissons Ratio (x) = 0.28088 0.20922
# Poissons Ratio (y) = 0.28087 0.20921
# Poissons Ratio (z) = 0.46680 0.46680
#
# Static dielectric constant tensor:
#      x y z
#    x 1.527320 0.000000 0.000000 
#    y 0.000000 1.527320 0.000000 
#    z 0.000000 0.000000 1.546770 
# 
# From -- ./inp_files/4219.got.cif
#   From: 2010.05.17/outbox.cif.g08.bks.cpg/sg111_3_cif.got.tgz:4219.got - 2010.05.20 10:56:05.
