data_PCOD9554318
_publ_section_title
;
Structure prediction by ZEFSAII (Michael W. Deem and Ramdas Pophale) SiO2 
 PCOD9554318
Probable space group: I 41 M D
;
_chemical_formula_sum "Si O2"
_cell_formula_units_Z 48
_cell_length_a 20.776370
_cell_length_b 20.776370
_cell_length_c 5.038864
_cell_angle_alpha 90.000000
_cell_angle_beta 90.000000
_cell_angle_gamma 90.000000
_cell_volume 2175.063691
_symmetry_space_group_name_H-M "I 41 M D"
_symmetry_group_IT_number 109
_symmetry_cell_setting 'tetragonal'
loop_
_space_group_symop_operation_xyz
x,y,z
-y,1/2+x,1/4+z
-x,-y,z
y,1/2-x,1/4+z
-x,y,z
x,-y,z
-y,1/2-x,1/4+z
y,1/2+x,1/4+z
1/2+x,1/2+y,1/2+z
1/2-y,x,3/4+z
1/2-x,1/2-y,1/2+z
1/2+y,-x,3/4+z
1/2-x,1/2+y,1/2+z
1/2+x,1/2-y,1/2+z
1/2-y,-x,3/4+z
1/2+y,x,3/4+z
loop_
_atom_site_type_symbol
_atom_site_label
_atom_site_fract_x
_atom_site_fract_y
_atom_site_fract_z
Si Si1 0.685508 0.500000 0.926390
Si Si2 0.812000 0.325292 0.102193
Si Si3 0.864780 0.621384 0.601959
Si Si4 0.216780 0.500000 0.430126
O O1 0.637452 0.561390 0.918402
O O2 0.732650 0.500000 0.673057
O O3 0.735055 0.500000 0.176416
O O4 0.738677 0.326983 0.188071
O O5 0.848913 0.324513 0.380243
O O6 0.830550 0.378245 0.887805
O O7 0.832332 0.560328 0.455135
#
# Coordination Sequence:
#
# PCOD9554318 Si02
#       4
#     8  16  16   8
#     4  12  26  45  70  99 136 180 227 284 343 408
#     4  12  23  38  64  97 131 170 221 287 353 410
#     4  12  25  43  66  96 135 178 229 278 341 417
#     4  12  26  45  70  99 136 180 227 284 343 408
#
# _framework density 22.068318999999999
#
# number of rings (size 3 to 8) (size 9 to 14) (size 15 to 20)
#    0.000    0.000    0.000   14.000    0.000    0.667 
#    0.000    0.000    0.000    8.000    0.000    0.000 
#    0.000    0.000    0.000    0.000    0.000    0.000 
#
# Total GULP energy -133998.547167 kJ/mol
# GULP energy per Si atom -5583.272799 kJ/mol
# Density = 2.201809 g / cm^3
# Si number density = 22.068319 Si / 1000 Ang^3
#
#
#
# Elastic Constant Matrix: (Units=GPa)
#
#
# Indices 1 2 3 4 5 6 
#
# 1 78.5263 28.9533 23.6079 0.0000 0.0000 0.0000
# 2 28.9533 78.5263 23.6079 0.0000 0.0000 0.0000
# 3 23.6079 23.6079 178.4453 0.0000 0.0000 0.0000
# 4 0.0000 0.0000 0.0000 27.3899 0.0000 0.0000
# 5 0.0000 0.0000 0.0000 0.0000 27.3899 0.0000
# 6 0.0000 0.0000 0.0000 0.0000 0.0000 38.0836
#
#
#
# Elastic Compliance Matrix: (Units=1/GPa)
#
#
# Indices 1 2 3 4 5 6 
#
# 1 0.015025 -0.005147 -0.001307 0.000000 0.000000 0.000000
# 2 -0.005147 0.015025 -0.001307 0.000000 0.000000 0.000000
# 3 -0.001307 -0.001307 0.005950 0.000000 0.000000 0.000000
# 4 0.000000 0.000000 0.000000 0.036510 0.000000 0.000000
# 5 0.000000 0.000000 0.000000 0.000000 0.036510 0.000000
# 6 0.000000 0.000000 0.000000 0.000000 0.000000 0.026258
#
#
# Mechanical properties :
#
#
# Convention : Reuss Voigt Hill
#
# Bulk Modulus (GPa) = 48.83122 54.20399 51.51761
# Shear Modulus (GPa) = 31.72073 35.86127 33.79100
#
# Velocity S-wave (km/s) = 3.79540 4.03552 3.91730
# Velocity P-wave (km/s) = 6.43289 6.80655 6.62236
#
# Compressibility (1/GPa) = 0.02047870
#
# Stress axis : x y z
#
# Youngs Moduli (GPa) = 66.55468 66.55468 168.07437
#
# Poissons Ratio (x) = 0.34256 0.21965
# Poissons Ratio (y) = 0.34256 0.21965
# Poissons Ratio (z) = 0.08698 0.08698
#
# Static dielectric constant tensor:
#      x y z
#    x 1.921430 0.000000 0.000000 
#    y 0.000000 1.921430 0.000000 
#    z 0.000000 0.000000 1.795560 
# 
# From -- ./inp_files/303.got.cif
#   From: 2010.05.17/outbox.cif.g08.bks.cpg/sg109_1_cif.got.tgz:303.got - 2010.05.20 10:51:12.
