data_PCOD9554282
_publ_section_title
;
Structure prediction by ZEFSAII (Michael W. Deem and Ramdas Pophale) SiO2 
 PCOD9554282
Probable space group: I 41 M D
;
_chemical_formula_sum "Si O2"
_cell_formula_units_Z 112
_cell_length_a 15.482985
_cell_length_b 15.482985
_cell_length_c 22.057202
_cell_angle_alpha 90.000000
_cell_angle_beta 90.000000
_cell_angle_gamma 90.000000
_cell_volume 5287.614764
_symmetry_space_group_name_H-M "I 41 M D"
_symmetry_group_IT_number 109
_symmetry_cell_setting 'tetragonal'
loop_
_space_group_symop_operation_xyz
x,y,z
-y,1/2+x,1/4+z
-x,-y,z
y,1/2-x,1/4+z
-x,y,z
x,-y,z
-y,1/2-x,1/4+z
y,1/2+x,1/4+z
1/2+x,1/2+y,1/2+z
1/2-y,x,3/4+z
1/2-x,1/2-y,1/2+z
1/2+y,-x,3/4+z
1/2-x,1/2+y,1/2+z
1/2+x,1/2-y,1/2+z
1/2-y,-x,3/4+z
1/2+y,x,3/4+z
loop_
_atom_site_type_symbol
_atom_site_label
_atom_site_fract_x
_atom_site_fract_y
_atom_site_fract_z
Si Si1 0.901007 0.156612 0.603960
Si Si2 0.908979 0.225498 0.384397
Si Si3 0.823922 0.760453 0.186221
Si Si4 0.602488 0.844313 0.038391
Si Si5 0.090560 0.633032 0.727856
Si Si6 0.842402 0.820028 0.729560
Si Si7 0.899778 0.103325 0.858318
O O1 0.887040 0.250664 0.572476
O O2 0.882998 0.093421 0.548825
O O3 0.847320 0.134550 0.663975
O O4 0.000000 0.150658 0.622030
O O5 0.820444 0.279438 0.384323
O O6 0.905022 0.147699 0.337323
O O7 0.907334 0.175311 0.448380
O O8 0.000000 0.273809 0.377715
O O9 0.860473 0.837779 0.228904
O O10 0.754276 0.716546 0.231272
O O11 0.869900 0.678917 0.153924
O O12 0.500000 0.856406 0.027898
O O13 0.099596 0.735055 0.718618
O O14 0.000000 0.602609 0.701329
O O15 0.873349 0.865009 0.790590
O O16 0.000000 0.132785 0.871749
O O17 0.902019 0.000000 0.858281
#
# Coordination Sequence:
#
# PCOD9554282 Si02
#       7
#    16  16  16  16  16  16  16
#     4  11  20  33  53  85 127 169 212 259 316 388
#     4  11  22  37  60  92 130 176 222 268 330 404
#     4  11  22  41  68  93 128 176 222 280 335 406
#     4  11  21  37  60  93 135 178 226 276 330 399
#     4  11  21  33  54  87 128 169 209 258 321 395
#     4  11  21  38  64  91 122 166 211 265 331 405
#     4  11  26  47  69  97 132 170 223 289 349 406
#
# _framework density 21.181573
#
# number of rings (size 3 to 8) (size 9 to 14) (size 15 to 20)
#    0.000    1.000    5.714    4.286    0.000    3.714 
#    0.000    0.000    0.000    1.286    0.000    0.000 
#    0.000    0.000    0.000    0.000    0.000    0.000 
#
# Total GULP energy -311941.263664 kJ/mol
# GULP energy per Si atom -5570.379708 kJ/mol
# Density = 2.113336 g / cm^3
# Si number density = 21.181573 Si / 1000 Ang^3
#
#
#
# Elastic Constant Matrix: (Units=GPa)
#
#
# Indices 1 2 3 4 5 6 
#
# 1 94.2402 35.2200 32.6118 0.0000 0.0000 0.0000
# 2 35.2200 94.2402 32.6118 0.0000 0.0000 0.0000
# 3 32.6118 32.6118 113.6945 0.0000 0.0000 0.0000
# 4 0.0000 0.0000 0.0000 33.7672 0.0000 0.0000
# 5 0.0000 0.0000 0.0000 0.0000 33.7672 0.0000
# 6 0.0000 0.0000 0.0000 0.0000 0.0000 -49.4500
#
#
#
# Elastic Compliance Matrix: (Units=1/GPa)
#
#
# Indices 1 2 3 4 5 6 
#
# 1 0.012986 -0.003957 -0.002590 0.000000 0.000000 0.000000
# 2 -0.003957 0.012986 -0.002590 0.000000 0.000000 0.000000
# 3 -0.002590 -0.002590 0.010281 0.000000 0.000000 0.000000
# 4 0.000000 0.000000 0.000000 0.029615 0.000000 0.000000
# 5 0.000000 0.000000 0.000000 0.000000 0.029615 0.000000
# 6 0.000000 0.000000 0.000000 0.000000 0.000000 -0.020222
#
#
# Mechanical properties :
#
#
# Convention : Reuss Voigt Hill
#
# Bulk Modulus (GPa) = 55.61724 55.89579 55.75652
# Shear Modulus (GPa) = 50.23735 17.06565 33.65150
#
# Velocity S-wave (km/s) = 4.87534 2.84154 3.99019
# Velocity P-wave (km/s) = 7.61619 6.10016 6.89994
#
# Compressibility (1/GPa) = 0.01798004
#
# Stress axis : x y z
#
# Youngs Moduli (GPa) = 77.00438 77.00438 97.26429
#
# Poissons Ratio (x) = 0.30471 0.25191
# Poissons Ratio (y) = 0.30471 0.25191
# Poissons Ratio (z) = 0.19943 0.19943
#
# Static dielectric constant tensor:
#      x y z
#    x 1.825220 0.000000 0.000000 
#    y 0.000000 1.825220 0.000000 
#    z 0.000000 0.000000 1.868430 
# 
# From -- ./inp_files/4466.got.cif
#   From: 2010.05.17/outbox.cif.g08.bks.cpg/sg109_3_cif.got.tgz:4466.got - 2010.05.20 10:51:12.
