data_PCOD9554717
_publ_section_title
;
Structure prediction by ZEFSAII (Michael W. Deem and Ramdas Pophale) SiO2 
 PCOD9554717
Probable space group: P -4 2 M 
;
_chemical_formula_sum "Si O2"
_cell_formula_units_Z 64
_cell_length_a 14.937456
_cell_length_b 14.937456
_cell_length_c 17.743503
_cell_angle_alpha 90.000000
_cell_angle_beta 90.000000
_cell_angle_gamma 90.000000
_cell_volume 3959.065094
_symmetry_space_group_name_H-M "P -4 2 M "
_symmetry_group_IT_number 111
_symmetry_cell_setting 'tetragonal'
loop_
_space_group_symop_operation_xyz
x,y,z
y,-x,-z
-x,-y,z
-y,x,-z
x,-y,-z
-x,y,-z
-y,-x,z
y,x,z
loop_
_atom_site_type_symbol
_atom_site_label
_atom_site_fract_x
_atom_site_fract_y
_atom_site_fract_z
Si Si1 0.241368 0.393752 0.501290
Si Si2 0.747478 0.398870 0.909363
Si Si3 0.709847 0.144779 0.633823
Si Si4 0.605587 0.894511 0.213248
Si Si5 0.390661 0.242919 0.917207
Si Si6 0.905107 0.608558 0.795291
Si Si7 0.835662 0.021747 0.412820
Si Si8 0.837119 0.693813 0.643143
O O1 0.259816 0.500000 0.500000
O O2 0.330171 0.330171 0.496532
O O3 0.173060 0.353395 0.437448
O O4 0.196257 0.376904 0.582351
O O5 0.656558 0.343443 0.900967
O O6 0.818007 0.369306 0.846215
O O7 0.733498 0.505383 0.903119
O O8 0.782264 0.382442 0.994548
O O9 0.766694 0.233307 0.651637
O O10 0.649683 0.119193 0.705305
O O11 0.784867 0.067048 0.618855
O O12 0.497809 0.894687 0.218027
O O13 0.630141 0.993039 0.183845
O O14 0.327234 0.327234 0.903457
O O15 0.365798 0.162988 0.861212
O O16 0.882956 0.654840 0.716493
O O17 0.927189 0.072812 0.384020
O O18 0.760031 0.096643 0.401029
O O19 0.851797 0.000000 0.500000
O O20 0.752096 0.752096 0.667891
#
# Coordination Sequence:
#
# PCOD9554717 Si02
#       8
#     8   8   8   8   8   8   8   8
#     4  10  21  36  54  75 101 135 173 215 260 309
#     4   9  18  33  51  74 103 133 165 205 255 307
#     4  11  21  35  52  73 101 135 173 208 255 311
#     4  10  20  32  49  73 101 132 166 208 251 297
#     4   9  18  32  52  76 101 131 167 206 253 311
#     4  10  19  32  50  73 100 130 167 207 252 299
#     4  11  21  35  52  73 101 131 168 214 261 310
#     4  10  19  33  51  71  99 130 163 207 255 300
#
# _framework density 16.165433
#
# number of rings (size 3 to 8) (size 9 to 14) (size 15 to 20)
#    0.000    2.000    2.500    1.875    0.000    1.750 
#    0.000    4.375    0.000    0.000    0.000    3.500 
#    0.000    0.000    0.000    5.750    0.000    0.250 
#
# Total GULP energy -356343.557017 kJ/mol
# GULP energy per Si atom -5567.868078 kJ/mol
# Density = 1.612864 g / cm^3
# Si number density = 16.165433 Si / 1000 Ang^3
#
#
#
# Elastic Constant Matrix: (Units=GPa)
#
#
# Indices 1 2 3 4 5 6 
#
# 1 56.6861 21.7232 30.2427 0.0000 0.0000 0.0000
# 2 21.7232 56.6811 30.2407 0.0000 0.0000 0.0000
# 3 30.2427 30.2407 65.1100 0.0000 0.0000 0.0000
# 4 0.0000 0.0000 0.0000 26.3746 0.0000 0.0000
# 5 0.0000 0.0000 0.0000 0.0000 26.3748 0.0000
# 6 0.0000 0.0000 0.0000 0.0000 0.0000 21.7023
#
#
#
# Elastic Compliance Matrix: (Units=1/GPa)
#
#
# Indices 1 2 3 4 5 6 
#
# 1 0.024239 -0.004364 -0.009231 0.000000 0.000000 0.000000
# 2 -0.004364 0.024240 -0.009231 0.000000 0.000000 0.000000
# 3 -0.009231 -0.009231 0.023934 0.000000 0.000000 0.000000
# 4 0.000000 0.000000 0.000000 0.037915 0.000000 0.000000
# 5 0.000000 0.000000 0.000000 0.000000 0.037915 0.000000
# 6 0.000000 0.000000 0.000000 0.000000 0.000000 0.046078
#
#
# Mechanical properties :
#
#
# Convention : Reuss Voigt Hill
#
# Bulk Modulus (GPa) = 37.37104 38.09893 37.73499
# Shear Modulus (GPa) = 20.08877 21.30838 20.69857
#
# Velocity S-wave (km/s) = 3.52902 3.63456 3.58218
# Velocity P-wave (km/s) = 6.30661 6.42127 6.36420
#
# Compressibility (1/GPa) = 0.02675868
#
# Stress axis : x y z
#
# Youngs Moduli (GPa) = 41.25647 41.25355 41.78142
#
# Poissons Ratio (x) = 0.18004 0.38570
# Poissons Ratio (y) = 0.18006 0.38570
# Poissons Ratio (z) = 0.38086 0.38083
#
# Static dielectric constant tensor:
#      x y z
#    x 1.543620 0.000000 0.000000 
#    y 0.000000 1.543620 0.000000 
#    z 0.000000 0.000000 1.525330 
# 
# From -- ./inp_files/3763.got.cif
#   From: 2010.05.17/outbox.cif.g08.bks.cpg/sg111_2_cif.got.tgz:3763.got - 2010.05.20 10:56:05.
