data_PCOD9554664
_publ_section_title
;
Structure prediction by ZEFSAII (Michael W. Deem and Ramdas Pophale) SiO2 
 PCOD9554664
Probable space group: P -4 2 M 
;
_chemical_formula_sum "Si O2"
_cell_formula_units_Z 48
_cell_length_a 21.580703
_cell_length_b 21.580703
_cell_length_c 7.779972
_cell_angle_alpha 90.000000
_cell_angle_beta 90.000000
_cell_angle_gamma 90.000000
_cell_volume 3623.341012
_symmetry_space_group_name_H-M "P -4 2 M "
_symmetry_group_IT_number 111
_symmetry_cell_setting 'tetragonal'
loop_
_space_group_symop_operation_xyz
x,y,z
y,-x,-z
-x,-y,z
-y,x,-z
x,-y,-z
-x,y,-z
-y,-x,z
y,x,z
loop_
_atom_site_type_symbol
_atom_site_label
_atom_site_fract_x
_atom_site_fract_y
_atom_site_fract_z
Si Si1 0.575040 0.070350 0.986316
Si Si2 0.620256 0.477096 0.687633
Si Si3 0.431778 0.167275 0.716226
Si Si4 0.717234 0.380328 0.773933
Si Si5 0.848150 0.578956 0.326928
Si Si6 0.693539 0.593837 0.826060
O O1 0.593594 0.096185 0.800412
O O2 0.500000 0.067400 0.000000
O O3 0.591259 0.121333 0.132842
O O4 0.598179 0.000000 0.000000
O O5 0.601118 0.500000 0.500000
O O6 0.563621 0.436380 0.765246
O O7 0.677040 0.428987 0.663741
O O8 0.649173 0.534991 0.788681
O O9 0.506846 0.167984 0.713877
O O10 0.413800 0.141489 0.529116
O O11 0.411881 0.238835 0.740184
O O12 0.686015 0.313986 0.753328
O O13 0.787961 0.382882 0.725427
O O14 0.706456 0.401922 0.970209
O O15 0.654626 0.654626 0.773560
#
# Coordination Sequence:
#
# PCOD9554664 Si02
#       6
#     8   8   8   8   8   8
#     4   9  18  31  47  65  84 102 122 154 198 253
#     4  11  22  33  43  56  75 101 135 177 221 258
#     4  10  19  30  47  64  81 106 131 161 205 249
#     4  10  20  32  46  60  76 103 139 174 208 251
#     4  10  18  30  47  63  84 105 129 164 200 248
#     4  11  21  32  46  60  77 104 140 174 210 256
#
# _framework density 13.247441999999999
#
# number of rings (size 3 to 8) (size 9 to 14) (size 15 to 20)
#    0.000    1.833    3.333    2.000    0.000    3.833 
#    0.000    4.167    0.000    6.000    0.000    0.000 
#    0.000    0.000    0.000    0.000    0.000    0.000 
#
# Total GULP energy -267645.346732 kJ/mol
# GULP energy per Si atom -5575.944724 kJ/mol
# Density = 1.321729 g / cm^3
# Si number density = 13.247442 Si / 1000 Ang^3
#
#
#
# Elastic Constant Matrix: (Units=GPa)
#
#
# Indices 1 2 3 4 5 6 
#
# 1 66.5930 24.0100 32.1326 0.0000 0.0000 0.0000
# 2 24.0100 66.5924 32.1337 0.0000 0.0000 0.0000
# 3 32.1326 32.1337 58.4565 0.0000 0.0000 0.0000
# 4 0.0000 0.0000 0.0000 12.2879 0.0000 0.0000
# 5 0.0000 0.0000 0.0000 0.0000 12.2876 0.0000
# 6 0.0000 0.0000 0.0000 0.0000 0.0000 5.7893
#
#
#
# Elastic Compliance Matrix: (Units=1/GPa)
#
#
# Indices 1 2 3 4 5 6 
#
# 1 0.020787 -0.002696 -0.009944 0.000000 0.000000 0.000000
# 2 -0.002696 0.020788 -0.009945 0.000000 0.000000 0.000000
# 3 -0.009944 -0.009945 0.028040 0.000000 0.000000 0.000000
# 4 0.000000 0.000000 0.000000 0.081381 0.000000 0.000000
# 5 0.000000 0.000000 0.000000 0.000000 0.081383 0.000000
# 6 0.000000 0.000000 0.000000 0.000000 0.000000 0.172733
#
#
# Mechanical properties :
#
#
# Convention : Reuss Voigt Hill
#
# Bulk Modulus (GPa) = 40.91050 40.91050 40.91050
# Shear Modulus (GPa) = 10.90681 12.96400 11.93540
#
# Velocity S-wave (km/s) = 2.87246 3.13166 3.00485
# Velocity P-wave (km/s) = 6.47690 6.63515 6.55650
#
# Compressibility (1/GPa) = 0.02444360
#
# Stress axis : x y z
#
# Youngs Moduli (GPa) = 48.10701 48.10526 35.66383
#
# Poissons Ratio (x) = 0.12971 0.35464
# Poissons Ratio (y) = 0.12971 0.35468
# Poissons Ratio (z) = 0.47838 0.47840
#
# Static dielectric constant tensor:
#      x y z
#    x 1.422420 0.000000 0.000000 
#    y 0.000000 1.422420 0.000000 
#    z 0.000000 0.000000 1.488090 
# 
# From -- ./inp_files/1869.got.cif
#   From: 2010.05.17/outbox.cif.g08.bks.cpg/sg111_1_cif.got.tgz:1869.got - 2010.05.20 10:56:05.
