data_PCOD9554275
_publ_section_title
;
Structure prediction by ZEFSAII (Michael W. Deem and Ramdas Pophale) SiO2 
 PCOD9554275
Probable space group: I 41 M D
;
_chemical_formula_sum "Si O2"
_cell_formula_units_Z 96
_cell_length_a 24.292245
_cell_length_b 24.292245
_cell_length_c 7.001368
_cell_angle_alpha 90.000000
_cell_angle_beta 90.000000
_cell_angle_gamma 90.000000
_cell_volume 4131.599445
_symmetry_space_group_name_H-M "I 41 M D"
_symmetry_group_IT_number 109
_symmetry_cell_setting 'tetragonal'
loop_
_space_group_symop_operation_xyz
x,y,z
-y,1/2+x,1/4+z
-x,-y,z
y,1/2-x,1/4+z
-x,y,z
x,-y,z
-y,1/2-x,1/4+z
y,1/2+x,1/4+z
1/2+x,1/2+y,1/2+z
1/2-y,x,3/4+z
1/2-x,1/2-y,1/2+z
1/2+y,-x,3/4+z
1/2-x,1/2+y,1/2+z
1/2+x,1/2-y,1/2+z
1/2-y,-x,3/4+z
1/2+y,x,3/4+z
loop_
_atom_site_type_symbol
_atom_site_label
_atom_site_fract_x
_atom_site_fract_y
_atom_site_fract_z
Si Si1 0.500000 0.667265 0.508570
Si Si2 0.687441 0.396390 0.651421
Si Si3 0.880924 0.083679 0.505387
Si Si4 0.616522 0.661321 0.329138
Si Si5 0.500000 0.387474 0.926334
Si Si6 0.675068 0.242785 0.221692
Si Si7 0.000000 0.292638 0.890853
Si Si8 0.000000 0.758120 0.468836
O O1 0.555633 0.650187 0.402587
O O2 0.500000 0.631635 0.703738
O O3 0.500000 0.735694 0.516414
O O4 0.660030 0.368859 0.467507
O O5 0.710560 0.349002 0.791195
O O6 0.733397 0.443898 0.624380
O O7 0.640610 0.421598 0.789826
O O8 0.877482 0.142492 0.610160
O O9 0.946508 0.077897 0.489169
O O10 0.838251 0.049216 0.636736
O O11 0.625774 0.726531 0.329931
O O12 0.500000 0.323707 0.000619
O O13 0.710759 0.212644 0.377636
O O14 0.000000 0.266977 0.679909
#
# Coordination Sequence:
#
# PCOD9554275 Si02
#       8
#     8  16  16  16   8  16   8   8
#     4  12  26  44  71 106 134 188 240 282 355 428
#     4  11  24  44  67 102 137 181 235 293 350 425
#     4  11  23  46  68 102 138 177 228 297 348 418
#     4  12  25  44  73  98 141 182 238 290 347 432
#     4  12  24  43  75 101 142 181 233 292 354 418
#     4  12  25  42  63  96 140 185 234 290 354 419
#     4  10  24  45  72 101 140 181 241 281 359 431
#     4  10  24  42  70 100 140 182 234 291 358 415
#
# _framework density 23.235555000000002
#
# number of rings (size 3 to 8) (size 9 to 14) (size 15 to 20)
#    0.000    0.667    3.333    5.500    2.333    0.333 
#    0.000    0.000    0.000    1.500    0.000    0.000 
#    0.000    0.000    0.000    0.000    0.000    0.000 
#
# Total GULP energy -267732.033766 kJ/mol
# GULP energy per Si atom -5577.750703 kJ/mol
# Density = 2.318267 g / cm^3
# Si number density = 23.235555 Si / 1000 Ang^3
#
#
#
# Elastic Constant Matrix: (Units=GPa)
#
#
# Indices 1 2 3 4 5 6 
#
# 1 55.5983 5.3666 1.8782 0.0000 0.0000 0.0000
# 2 5.3666 55.5983 1.8782 0.0000 0.0000 0.0000
# 3 1.8782 1.8782 78.4243 0.0000 0.0000 0.0000
# 4 0.0000 0.0000 0.0000 29.6535 0.0000 0.0000
# 5 0.0000 0.0000 0.0000 0.0000 29.6535 0.0000
# 6 0.0000 0.0000 0.0000 0.0000 0.0000 26.2415
#
#
#
# Elastic Compliance Matrix: (Units=1/GPa)
#
#
# Indices 1 2 3 4 5 6 
#
# 1 0.018167 -0.001740 -0.000393 0.000000 0.000000 0.000000
# 2 -0.001740 0.018167 -0.000393 0.000000 0.000000 0.000000
# 3 -0.000393 -0.000393 0.012770 0.000000 0.000000 0.000000
# 4 0.000000 0.000000 0.000000 0.033723 0.000000 0.000000
# 5 0.000000 0.000000 0.000000 0.000000 0.033723 0.000000
# 6 0.000000 0.000000 0.000000 0.000000 0.000000 0.038108
#
#
# Mechanical properties :
#
#
# Convention : Reuss Voigt Hill
#
# Bulk Modulus (GPa) = 22.70116 23.09630 22.89873
# Shear Modulus (GPa) = 28.67040 29.14290 28.90665
#
# Velocity S-wave (km/s) = 3.51651 3.54536 3.53096
# Velocity P-wave (km/s) = 5.12630 5.16925 5.14782
#
# Compressibility (1/GPa) = 0.04405061
#
# Stress axis : x y z
#
# Youngs Moduli (GPa) = 55.04359 55.04359 78.30856
#
# Poissons Ratio (x) = 0.09579 0.03081
# Poissons Ratio (y) = 0.09579 0.03081
# Poissons Ratio (z) = 0.02165 0.02165
#
# Static dielectric constant tensor:
#      x y z
#    x 1.935210 0.000000 0.000000 
#    y 0.000000 1.935210 0.000000 
#    z 0.000000 0.000000 1.891480 
# 
# From -- ./inp_files/1477.got.cif
#   From: 2010.05.17/outbox.cif.g08.bks.cpg/sg109_1_cif.got.tgz:1477.got - 2010.05.20 10:51:12.
