data_PCOD9554892
_publ_section_title
;
Structure prediction by ZEFSAII (Michael W. Deem and Ramdas Pophale) SiO2 
 PCOD9554892
Probable space group: P -4 2 M 
;
_chemical_formula_sum "Si O2"
_cell_formula_units_Z 48
_cell_length_a 10.758041
_cell_length_b 10.758041
_cell_length_c 20.662240
_cell_angle_alpha 90.000000
_cell_angle_beta 90.000000
_cell_angle_gamma 90.000000
_cell_volume 2391.353565
_symmetry_space_group_name_H-M "P -4 2 M "
_symmetry_group_IT_number 111
_symmetry_cell_setting 'tetragonal'
loop_
_space_group_symop_operation_xyz
x,y,z
y,-x,-z
-x,-y,z
-y,x,-z
x,-y,-z
-x,y,-z
-y,-x,z
y,x,z
loop_
_atom_site_type_symbol
_atom_site_label
_atom_site_fract_x
_atom_site_fract_y
_atom_site_fract_z
Si Si1 0.005833 0.208724 0.927904
Si Si2 0.896576 0.317282 0.804684
Si Si3 0.516146 0.148248 0.636725
Si Si4 0.295734 0.509322 0.237770
Si Si5 0.045676 0.759041 0.665240
Si Si6 0.882482 0.313187 0.453346
O O1 0.898630 0.101371 0.927685
O O2 0.975589 0.299993 0.869223
O O3 0.134628 0.134628 0.918516
O O4 0.000000 0.264637 0.000000
O O5 0.789443 0.210558 0.805138
O O6 0.821502 0.446885 0.799113
O O7 0.973810 0.285988 0.739379
O O8 0.465608 0.239282 0.691336
O O9 0.663772 0.151160 0.638908
O O10 0.445661 0.168755 0.570019
O O11 0.500000 0.000000 0.651703
O O12 0.368752 0.631249 0.213040
O O13 0.400471 0.400471 0.241926
O O14 0.105043 0.894957 0.666140
O O15 0.935232 0.743962 0.614505
O O16 0.778987 0.221014 0.479839
O O17 0.000000 0.325085 0.500000
#
# Coordination Sequence:
#
# PCOD9554892 Si02
#       6
#     8   8   8   8   8   8
#     4   8  13  21  35  59  96 145 191 220 251 307
#     4   8  14  25  41  65  97 132 174 221 263 305
#     4   9  18  32  50  69  93 125 163 205 253 305
#     4   9  16  28  49  75 102 135 175 218 265 315
#     4   9  18  32  50  71  95 126 164 207 254 301
#     4  11  23  36  49  67  94 129 166 203 246 302
#
# _framework density 20.072313999999999
#
# number of rings (size 3 to 8) (size 9 to 14) (size 15 to 20)
#    0.000    3.000    0.000    3.000    0.000    4.833 
#    0.000    1.667    0.000    0.000    0.000    1.167 
#    0.000   90.667    0.000  151.667    0.000  411.667 
#
# Total GULP energy -267309.905166 kJ/mol
# GULP energy per Si atom -5568.956358 kJ/mol
# Density = 2.002663 g / cm^3
# Si number density = 20.072314 Si / 1000 Ang^3
#
#
#
# Elastic Constant Matrix: (Units=GPa)
#
#
# Indices 1 2 3 4 5 6 
#
# 1 42.9157 23.2490 38.4299 0.0000 0.0000 0.0000
# 2 23.2490 42.9140 38.4303 0.0000 0.0000 0.0000
# 3 38.4299 38.4303 140.0731 0.0000 0.0000 0.0000
# 4 0.0000 0.0000 0.0000 23.5629 0.0000 0.0000
# 5 0.0000 0.0000 0.0000 0.0000 23.5628 0.0000
# 6 0.0000 0.0000 0.0000 0.0000 0.0000 25.7360
#
#
#
# Elastic Compliance Matrix: (Units=1/GPa)
#
#
# Indices 1 2 3 4 5 6 
#
# 1 0.036516 -0.014333 -0.006086 0.000000 0.000000 0.000000
# 2 -0.014333 0.036518 -0.006087 0.000000 0.000000 0.000000
# 3 -0.006086 -0.006087 0.010479 0.000000 0.000000 0.000000
# 4 0.000000 0.000000 0.000000 0.042440 0.000000 0.000000
# 5 0.000000 0.000000 0.000000 0.000000 0.042440 0.000000
# 6 0.000000 0.000000 0.000000 0.000000 0.000000 0.038856
#
#
# Mechanical properties :
#
#
# Convention : Reuss Voigt Hill
#
# Bulk Modulus (GPa) = 32.78491 47.34681 40.06586
# Shear Modulus (GPa) = 18.48928 22.95856 20.72392
#
# Velocity S-wave (km/s) = 3.03831 3.38567 3.21668
# Velocity P-wave (km/s) = 5.35512 6.23883 5.81379
#
# Compressibility (1/GPa) = 0.03050184
#
# Stress axis : x y z
#
# Youngs Moduli (GPa) = 27.38525 27.38368 95.43025
#
# Poissons Ratio (x) = 0.39248 0.58080
# Poissons Ratio (y) = 0.39250 0.58087
# Poissons Ratio (z) = 0.16667 0.16668
#
# Static dielectric constant tensor:
#      x y z
#    x 1.777250 0.000000 0.000000 
#    y 0.000000 1.777260 0.000000 
#    z 0.000000 0.000000 1.732230 
# 
# From -- ./inp_files/3897.got.cif
#   From: 2010.05.17/outbox.cif.g08.bks.cpg/sg111_2_cif.got.tgz:3897.got - 2010.05.20 10:56:05.
