data_PCOD9554336
_publ_section_title
;
Structure prediction by ZEFSAII (Michael W. Deem and Ramdas Pophale) SiO2 
 PCOD9554336
Probable space group: I 41 C D
;
_chemical_formula_sum "Si O2"
_cell_formula_units_Z 104
_cell_length_a 17.080071
_cell_length_b 17.080071
_cell_length_c 14.662415
_cell_angle_alpha 90.000000
_cell_angle_beta 90.000000
_cell_angle_gamma 90.000000
_cell_volume 4277.449105
_symmetry_space_group_name_H-M "I 41 C D"
_symmetry_group_IT_number 110
_symmetry_cell_setting 'tetragonal'
loop_
_space_group_symop_operation_xyz
x,y,z
-y,1/2+x,1/4+z
-x,-y,z
y,1/2-x,1/4+z
-x,y,1/2+z
x,-y,1/2+z
1/2-y,-x,1/4+z
1/2+y,x,1/4+z
1/2+x,1/2+y,1/2+z
1/2-y,x,3/4+z
1/2-x,1/2-y,1/2+z
1/2+y,-x,3/4+z
1/2-x,1/2+y,z
1/2+x,1/2-y,z
-y,1/2-x,3/4+z
y,1/2+x,3/4+z
loop_
_atom_site_type_symbol
_atom_site_label
_atom_site_fract_x
_atom_site_fract_y
_atom_site_fract_z
Si Si1 0.988822 0.203821 0.685510
Si Si2 0.000000 0.500000 0.262918
Si Si3 0.777719 0.151297 0.543675
Si Si4 0.709025 0.544925 0.697337
Si Si5 0.836070 0.561896 0.226789
Si Si6 0.078179 0.597319 0.421281
Si Si7 0.357044 0.743103 0.617869
O O1 0.911194 0.228109 0.736496
O O2 0.967180 0.189455 0.578873
O O3 0.024409 0.121147 0.718487
O O4 0.066463 0.261208 0.683591
O O5 0.926569 0.539458 0.211821
O O6 0.962253 0.435474 0.330415
O O7 0.823026 0.096947 0.615986
O O8 0.845944 0.182073 0.478171
O O9 0.723295 0.209225 0.603646
O O10 0.779844 0.489663 0.663393
O O11 0.643227 0.484888 0.729966
O O12 0.742886 0.604416 0.769794
O O13 0.151554 0.651427 0.390867
#
# Coordination Sequence:
#
# PCOD9554336 Si02
#       7
#    16   8  16  16  16  16  16
#     4   8  21  43  56  91 123 164 206 254 316 381
#     4  10  16  40  66  80 116 170 208 246 314 388
#     4  12  22  38  65  93 126 165 209 271 321 378
#     4  11  22  40  64  89 119 171 209 250 325 381
#     4  10  22  39  63  89 120 166 212 253 316 388
#     4   9  20  40  63  83 122 166 206 252 315 383
#     4   9  23  41  60  93 128 160 212 264 319 386
#
# _framework density 24.313556999999999
#
# number of rings (size 3 to 8) (size 9 to 14) (size 15 to 20)
#    0.923    1.231    3.077    0.923    2.154    4.923 
#    8.308    0.000    0.000    0.000    0.000    0.000 
#    0.000    0.000    0.000    0.000    0.000    0.000 
#
# Total GULP energy -289652.668460 kJ/mol
# GULP energy per Si atom -5570.243624 kJ/mol
# Density = 2.425822 g / cm^3
# Si number density = 24.313557 Si / 1000 Ang^3
#
#
#
# Elastic Constant Matrix: (Units=GPa)
#
#
# Indices 1 2 3 4 5 6 
#
# 1 107.1273 60.9445 3.4692 0.0000 0.0000 0.0000
# 2 60.9445 107.1273 3.4692 0.0000 0.0000 0.0000
# 3 3.4692 3.4692 20.5933 0.0000 0.0000 0.0000
# 4 0.0000 0.0000 0.0000 14.0676 0.0000 0.0000
# 5 0.0000 0.0000 0.0000 0.0000 14.0676 0.0000
# 6 0.0000 0.0000 0.0000 0.0000 0.0000 59.7093
#
#
#
# Elastic Compliance Matrix: (Units=1/GPa)
#
#
# Indices 1 2 3 4 5 6 
#
# 1 0.013822 -0.007831 -0.001009 0.000000 0.000000 0.000000
# 2 -0.007831 0.013822 -0.001009 0.000000 0.000000 0.000000
# 3 -0.001009 -0.001009 0.048900 0.000000 0.000000 0.000000
# 4 0.000000 0.000000 0.000000 0.071085 0.000000 0.000000
# 5 0.000000 0.000000 0.000000 0.000000 0.071085 0.000000
# 6 0.000000 0.000000 0.000000 0.000000 0.000000 0.016748
#
#
# Mechanical properties :
#
#
# Convention : Reuss Voigt Hill
#
# Bulk Modulus (GPa) = 17.59159 41.17927 29.38543
# Shear Modulus (GPa) = 18.24086 28.69991 23.47039
#
# Velocity S-wave (km/s) = 2.74201 3.43943 3.11033
# Velocity P-wave (km/s) = 4.15642 5.72245 5.00112
#
# Compressibility (1/GPa) = 0.05684533
#
# Stress axis : x y z
#
# Youngs Moduli (GPa) = 72.34688 72.34688 20.45004
#
# Poissons Ratio (x) = 0.56653 0.02064
# Poissons Ratio (y) = 0.56653 0.02064
# Poissons Ratio (z) = 0.07302 0.07302
#
# Static dielectric constant tensor:
#      x y z
#    x 2.002440 0.000000 0.000000 
#    y 0.000000 2.002440 0.000000 
#    z 0.000000 0.000000 1.928000 
# 
# From -- ./inp_files/1768.got.cif
#   From: 2010.05.17/outbox.cif.g08.bks.cpg/sg110_1_cif.got.tgz:1768.got - 2010.05.20 10:54:03.
