data_PCOD9554505
_publ_section_title
;
Structure prediction by ZEFSAII (Michael W. Deem and Ramdas Pophale) SiO2 
 PCOD9554505
Probable space group: I 41 C D
;
_chemical_formula_sum "Si O2"
_cell_formula_units_Z 112
_cell_length_a 32.149658
_cell_length_b 32.149658
_cell_length_c 4.942142
_cell_angle_alpha 90.000000
_cell_angle_beta 90.000000
_cell_angle_gamma 90.000000
_cell_volume 5108.200489
_symmetry_space_group_name_H-M "I 41 C D"
_symmetry_group_IT_number 110
_symmetry_cell_setting 'tetragonal'
loop_
_space_group_symop_operation_xyz
x,y,z
-y,1/2+x,1/4+z
-x,-y,z
y,1/2-x,1/4+z
-x,y,1/2+z
x,-y,1/2+z
1/2-y,-x,1/4+z
1/2+y,x,1/4+z
1/2+x,1/2+y,1/2+z
1/2-y,x,3/4+z
1/2-x,1/2-y,1/2+z
1/2+y,-x,3/4+z
1/2-x,1/2+y,z
1/2+x,1/2-y,z
-y,1/2-x,3/4+z
y,1/2+x,3/4+z
loop_
_atom_site_type_symbol
_atom_site_label
_atom_site_fract_x
_atom_site_fract_y
_atom_site_fract_z
Si Si1 0.972323 0.603314 0.468640
Si Si2 0.573867 0.243705 0.872654
Si Si3 0.776639 0.663000 0.945009
Si Si4 0.913203 0.471071 0.787451
Si Si5 0.474075 0.320437 0.629710
Si Si6 0.576735 0.188575 0.385125
Si Si7 0.675515 0.810791 0.966458
O O1 0.944514 0.564411 0.378358
O O2 0.947465 0.645831 0.418533
O O3 0.987020 0.602114 0.777954
O O4 0.619701 0.261292 0.817964
O O5 0.558845 0.223624 0.590761
O O6 0.549836 0.281229 0.013757
O O7 0.574071 0.205998 0.083692
O O8 0.734424 0.684720 0.844660
O O9 0.804493 0.656995 0.677548
O O10 0.803242 0.685695 0.174814
O O11 0.918418 0.489477 0.488338
O O12 0.865671 0.455143 0.816865
O O13 0.516279 0.319637 0.447841
O O14 0.625923 0.183902 0.448426
#
# Coordination Sequence:
#
# PCOD9554505 Si02
#       7
#    16  16  16  16  16  16  16
#     4  12  27  45  69 102 130 178 224 259 336 404
#     4  11  23  42  65  95 130 174 216 265 326 383
#     4  11  23  40  62  90 124 168 218 261 317 386
#     4  10  23  45  67 100 137 166 217 278 324 389
#     4  10  22  40  65  98 126 163 213 258 324 380
#     4  11  25  44  63  95 136 170 218 270 319 388
#     4  11  23  42  61  90 125 166 217 266 321 371
#
# _framework density 21.925529999999998
#
# number of rings (size 3 to 8) (size 9 to 14) (size 15 to 20)
#    0.000    1.143    0.000    6.857    2.000    6.286 
#    5.143    1.429    0.000    0.000    0.000    0.000 
#    0.000    0.000    0.000    0.000    0.000    0.000 
#
# Total GULP energy -313310.411170 kJ/mol
# GULP energy per Si atom -5594.828771 kJ/mol
# Density = 2.187563 g / cm^3
# Si number density = 21.925530 Si / 1000 Ang^3
#
#
#
# Elastic Constant Matrix: (Units=GPa)
#
#
# Indices 1 2 3 4 5 6 
#
# 1 44.5644 48.0105 -6.5388 0.0000 0.0000 0.0000
# 2 48.0105 44.5644 -6.5388 0.0000 0.0000 0.0000
# 3 -6.5388 -6.5388 92.4390 0.0000 0.0000 0.0000
# 4 0.0000 0.0000 0.0000 22.1609 0.0000 0.0000
# 5 0.0000 0.0000 0.0000 0.0000 22.1609 0.0000
# 6 0.0000 0.0000 0.0000 0.0000 0.0000 51.4902
#
#
#
# Elastic Compliance Matrix: (Units=1/GPa)
#
#
# Indices 1 2 3 4 5 6 
#
# 1 -0.139634 0.150545 0.000772 0.000000 0.000000 0.000000
# 2 0.150545 -0.139634 0.000772 0.000000 0.000000 0.000000
# 3 0.000772 0.000772 0.010927 0.000000 0.000000 0.000000
# 4 0.000000 0.000000 0.000000 0.045125 0.000000 0.000000
# 5 0.000000 0.000000 0.000000 0.000000 0.045125 0.000000
# 6 0.000000 0.000000 0.000000 0.000000 0.000000 0.019421
#
#
# Mechanical properties :
#
#
# Convention : Reuss Voigt Hill
#
# Bulk Modulus (GPa) = 27.90445 27.93706 27.92076
# Shear Modulus (GPa) = -11.08891 28.93804 8.92456
#
# Velocity S-wave (km/s) = -2.25134 3.63689 2.01971
# Velocity P-wave (km/s) = 2.44878 5.51411 4.26626
#
# Compressibility (1/GPa) = 0.03583658
#
# Stress axis : x y z
#
# Youngs Moduli (GPa) = -7.16160 -7.16160 91.51526
#
# Poissons Ratio (x) = 1.07814 -0.07063
# Poissons Ratio (y) = 1.07814 -0.07063
# Poissons Ratio (z) = 0.00553 0.00553
#
# Static dielectric constant tensor:
#      x y z
#    x 1.798820 0.000000 0.000000 
#    y 0.000000 1.798820 0.000000 
#    z 0.000000 0.000000 1.770770 
# 
# From -- ./inp_files/150.got.cif
#   From: 2010.05.17/outbox.cif.g08.bks.cpg/sg110_1_cif.got.tgz:150.got - 2010.05.20 10:54:03.
