data_PCOD9554281
_publ_section_title
;
Structure prediction by ZEFSAII (Michael W. Deem and Ramdas Pophale) SiO2 
 PCOD9554281
Probable space group: I 41 M D
;
_chemical_formula_sum "Si O2"
_cell_formula_units_Z 112
_cell_length_a 22.991245
_cell_length_b 22.991245
_cell_length_c 13.919875
_cell_angle_alpha 90.000000
_cell_angle_beta 90.000000
_cell_angle_gamma 90.000000
_cell_volume 7358.008991
_symmetry_space_group_name_H-M "I 41 M D"
_symmetry_group_IT_number 109
_symmetry_cell_setting 'tetragonal'
loop_
_space_group_symop_operation_xyz
x,y,z
-y,1/2+x,1/4+z
-x,-y,z
y,1/2-x,1/4+z
-x,y,z
x,-y,z
-y,1/2-x,1/4+z
y,1/2+x,1/4+z
1/2+x,1/2+y,1/2+z
1/2-y,x,3/4+z
1/2-x,1/2-y,1/2+z
1/2+y,-x,3/4+z
1/2-x,1/2+y,1/2+z
1/2+x,1/2-y,1/2+z
1/2-y,-x,3/4+z
1/2+y,x,3/4+z
loop_
_atom_site_type_symbol
_atom_site_label
_atom_site_fract_x
_atom_site_fract_y
_atom_site_fract_z
Si Si1 0.068006 0.233685 0.777370
Si Si2 0.068589 0.069420 0.096158
Si Si3 0.431899 0.500000 0.063298
Si Si4 0.881311 0.570474 0.139091
Si Si5 0.891081 0.640788 0.736323
Si Si6 0.931413 0.347317 0.522842
Si Si7 0.934324 0.785598 0.548220
Si Si8 0.068681 0.000000 0.792608
O O1 0.090099 0.179393 0.841071
O O2 0.100674 0.295157 0.781654
O O3 0.068856 0.217833 0.664183
O O4 0.000000 0.244395 0.802314
O O5 0.110559 0.084068 0.185006
O O6 0.000000 0.077371 0.119560
O O7 0.075872 0.000000 0.074031
O O8 0.082352 0.107020 0.001335
O O9 0.500000 0.500000 0.036811
O O10 0.399739 0.443134 0.024383
O O11 0.427577 0.500000 0.178456
O O12 0.880228 0.500000 0.128320
O O13 0.939307 0.592487 0.084311
O O14 0.897600 0.642495 0.621393
O O15 0.830531 0.612715 0.763333
O O16 0.925762 0.278479 0.504012
O O17 0.000000 0.357361 0.543858
O O18 0.000000 0.805233 0.524191
O O19 0.000000 0.000000 0.819632
#
# Coordination Sequence:
#
# PCOD9554281 Si02
#       8
#    16  16   8  16  16  16  16   8
#     4   9  17  31  48  68  97 131 164 193 242 307
#     4   9  16  27  47  75 101 128 164 200 242 291
#     4  11  20  26  41  73 105 118 143 209 267 288
#     4   9  15  26  46  70  98 131 159 190 235 294
#     4  11  18  31  47  69  97 127 165 203 247 296
#     4   9  18  33  48  69 100 130 163 201 244 305
#     4   9  18  31  49  69  92 130 169 196 243 305
#     4   9  16  26  41  71 105 121 147 195 241 289
#
# _framework density 15.221508999999999
#
# number of rings (size 3 to 8) (size 9 to 14) (size 15 to 20)
#    0.000    2.571    2.143    2.143    0.000    3.429 
#    0.000    0.000    0.000   10.286    0.000    0.000 
#    0.000    0.000    0.000    0.000    0.000    0.000 
#
# Total GULP energy -311820.566035 kJ/mol
# GULP energy per Si atom -5568.224393 kJ/mol
# Density = 1.518686 g / cm^3
# Si number density = 15.221509 Si / 1000 Ang^3
#
#
#
# Elastic Constant Matrix: (Units=GPa)
#
#
# Indices 1 2 3 4 5 6 
#
# 1 80.5792 54.1503 48.1392 0.0000 0.0000 0.0000
# 2 54.1503 80.5792 48.1392 0.0000 0.0000 0.0000
# 3 48.1392 48.1392 58.5638 0.0000 0.0000 0.0000
# 4 0.0000 0.0000 0.0000 95.6364 0.0000 0.0000
# 5 0.0000 0.0000 0.0000 0.0000 95.6364 0.0000
# 6 0.0000 0.0000 0.0000 0.0000 0.0000 22.0731
#
#
#
# Elastic Compliance Matrix: (Units=1/GPa)
#
#
# Indices 1 2 3 4 5 6 
#
# 1 0.027913 -0.009924 -0.014787 0.000000 0.000000 0.000000
# 2 -0.009924 0.027913 -0.014787 0.000000 0.000000 0.000000
# 3 -0.014787 -0.014787 0.041385 0.000000 0.000000 0.000000
# 4 0.000000 0.000000 0.000000 0.010456 0.000000 0.000000
# 5 0.000000 0.000000 0.000000 0.000000 0.010456 0.000000
# 6 0.000000 0.000000 0.000000 0.000000 0.000000 0.045304
#
#
# Mechanical properties :
#
#
# Convention : Reuss Voigt Hill
#
# Bulk Modulus (GPa) = 54.89864 57.84217 56.37040
# Shear Modulus (GPa) = 20.12106 47.28873 33.70489
#
# Velocity S-wave (km/s) = 3.63972 5.57983 4.71073
# Velocity P-wave (km/s) = 7.33540 8.92163 8.16712
#
# Compressibility (1/GPa) = 0.01821539
#
# Stress axis : x y z
#
# Youngs Moduli (GPa) = 35.82529 35.82529 24.16338
#
# Poissons Ratio (x) = 0.35554 0.35730
# Poissons Ratio (y) = 0.35554 0.35730
# Poissons Ratio (z) = 0.52975 0.52975
#
# Static dielectric constant tensor:
#      x y z
#    x 1.501740 0.000000 0.000000 
#    y 0.000000 1.501740 0.000000 
#    z 0.000000 0.000000 1.502360 
# 
# From -- ./inp_files/2166.got.cif
#   From: 2010.05.17/outbox.cif.g08.bks.cpg/sg109_2_cif.got.tgz:2166.got - 2010.05.20 10:51:12.
