data_PCOD9554333
_publ_section_title
;
Structure prediction by ZEFSAII (Michael W. Deem and Ramdas Pophale) SiO2 
 PCOD9554333
Probable space group: I 41 C D
;
_chemical_formula_sum "Si O2"
_cell_formula_units_Z 80
_cell_length_a 27.536209
_cell_length_b 27.536209
_cell_length_c 5.434068
_cell_angle_alpha 90.000000
_cell_angle_beta 90.000000
_cell_angle_gamma 90.000000
_cell_volume 4120.342969
_symmetry_space_group_name_H-M "I 41 C D"
_symmetry_group_IT_number 110
_symmetry_cell_setting 'tetragonal'
loop_
_space_group_symop_operation_xyz
x,y,z
-y,1/2+x,1/4+z
-x,-y,z
y,1/2-x,1/4+z
-x,y,1/2+z
x,-y,1/2+z
1/2-y,-x,1/4+z
1/2+y,x,1/4+z
1/2+x,1/2+y,1/2+z
1/2-y,x,3/4+z
1/2-x,1/2-y,1/2+z
1/2+y,-x,3/4+z
1/2-x,1/2+y,z
1/2+x,1/2-y,z
-y,1/2-x,3/4+z
y,1/2+x,3/4+z
loop_
_atom_site_type_symbol
_atom_site_label
_atom_site_fract_x
_atom_site_fract_y
_atom_site_fract_z
Si Si1 0.472827 0.062809 0.720690
Si Si2 0.559159 0.329657 0.665506
Si Si3 0.058851 0.715253 0.137981
Si Si4 0.449248 0.824108 0.143956
Si Si5 0.550549 0.368099 0.160158
O O1 0.488882 0.051592 0.440225
O O2 0.463415 0.120603 0.700981
O O3 0.422998 0.040833 0.824955
O O4 0.566708 0.272576 0.642561
O O5 0.575057 0.360003 0.424958
O O6 0.501114 0.340705 0.684585
O O7 0.579433 0.346609 0.928125
O O8 0.075398 0.687140 0.383333
O O9 0.000597 0.704840 0.127283
O O10 0.078813 0.694614 0.882486
#
# Coordination Sequence:
#
# PCOD9554333 Si02
#       5
#    16  16  16  16  16
#     4  12  21  34  44  64  94 125 160 191 231 281
#     4  10  19  35  47  68  84 114 166 197 238 275
#     4  10  16  28  51  66  84 100 146 206 227 272
#     4  10  16  27  43  69  83 107 139 188 232 277
#     4  10  20  32  48  61  89 121 154 205 235 268
#
# _framework density 19.415861
#
# number of rings (size 3 to 8) (size 9 to 14) (size 15 to 20)
#    0.000    1.600    4.000    7.200    0.000    0.000 
#    0.000   12.000    0.000    0.000    0.000    0.000 
#    0.000    0.000    0.000    0.000    0.000  144.000 
#
# Total GULP energy -222963.963982 kJ/mol
# GULP energy per Si atom -5574.099100 kJ/mol
# Density = 1.937167 g / cm^3
# Si number density = 19.415861 Si / 1000 Ang^3
#
#
#
# Elastic Constant Matrix: (Units=GPa)
#
#
# Indices 1 2 3 4 5 6 
#
# 1 44.9897 3.8805 -3.5305 0.0000 0.0000 0.0000
# 2 3.8805 44.9897 -3.5305 0.0000 0.0000 0.0000
# 3 -3.5305 -3.5305 146.8523 0.0000 0.0000 0.0000
# 4 0.0000 0.0000 0.0000 20.8655 0.0000 0.0000
# 5 0.0000 0.0000 0.0000 0.0000 20.8655 0.0000
# 6 0.0000 0.0000 0.0000 0.0000 0.0000 14.7469
#
#
#
# Elastic Compliance Matrix: (Units=1/GPa)
#
#
# Indices 1 2 3 4 5 6 
#
# 1 0.022430 -0.001896 0.000494 0.000000 0.000000 0.000000
# 2 -0.001896 0.022430 0.000494 0.000000 0.000000 0.000000
# 3 0.000494 0.000494 0.006833 0.000000 0.000000 0.000000
# 4 0.000000 0.000000 0.000000 0.047926 0.000000 0.000000
# 5 0.000000 0.000000 0.000000 0.000000 0.047926 0.000000
# 6 0.000000 0.000000 0.000000 0.000000 0.000000 0.067811
#
#
# Mechanical properties :
#
#
# Convention : Reuss Voigt Hill
#
# Bulk Modulus (GPa) = 20.04998 25.60783 22.82891
# Shear Modulus (GPa) = 21.38606 27.29643 24.34124
#
# Velocity S-wave (km/s) = 3.32245 3.75358 3.54457
# Velocity P-wave (km/s) = 5.00672 5.65717 5.34185
#
# Compressibility (1/GPa) = 0.04987536
#
# Stress axis : x y z
#
# Youngs Moduli (GPa) = 44.58402 44.58402 146.34219
#
# Poissons Ratio (x) = 0.08452 -0.07224
# Poissons Ratio (y) = 0.08452 -0.07224
# Poissons Ratio (z) = -0.02201 -0.02201
#
# Static dielectric constant tensor:
#      x y z
#    x 1.694340 0.000000 0.000000 
#    y 0.000000 1.694340 0.000000 
#    z 0.000000 0.000000 1.853880 
# 
# From -- ./inp_files/118.got.cif
#   From: 2010.05.17/outbox.cif.g08.bks.cpg/sg110_1_cif.got.tgz:118.got - 2010.05.20 10:54:03.
