data_PCOD9554973
_publ_section_title
;
Structure prediction by ZEFSAII (Michael W. Deem and Ramdas Pophale) SiO2 
 PCOD9554973
Probable space group: P -4 2 C
;
_chemical_formula_sum "Si O2"
_cell_formula_units_Z 30
_cell_length_a 9.050281
_cell_length_b 9.050281
_cell_length_c 16.221384
_cell_angle_alpha 90.000000
_cell_angle_beta 90.000000
_cell_angle_gamma 90.000000
_cell_volume 1328.654408
_symmetry_space_group_name_H-M "P -4 2 C"
_symmetry_group_IT_number 112
_symmetry_cell_setting 'tetragonal'
loop_
_space_group_symop_operation_xyz
x,y,z
y,-x,-z
-x,-y,z
-y,x,-z
x,-y,1/2-z
-x,y,1/2-z
-y,-x,1/2+z
y,x,1/2+z
loop_
_atom_site_type_symbol
_atom_site_label
_atom_site_fract_x
_atom_site_fract_y
_atom_site_fract_z
Si Si1 0.000000 0.000000 0.500000
Si Si2 0.830288 0.477623 0.400789
Si Si3 0.000000 0.000000 0.750000
Si Si4 0.774427 0.232354 0.525536
Si Si5 0.500000 0.000000 0.250000
Si Si6 0.817392 0.744446 0.659275
O O1 0.889278 0.894893 0.447765
O O2 0.827777 0.389479 0.489535
O O3 0.756590 0.636714 0.413739
O O4 0.758242 0.360897 0.338030
O O5 0.000000 0.500000 0.378201
O O6 0.106732 0.110329 0.698182
O O7 0.727042 0.159398 0.438586
O O8 0.394354 0.892824 0.300376
#
# Coordination Sequence:
#
# PCOD9554973 Si02
#       6
#     2   8   2   8   2   8
#     4  12  18  32  64  98 124 170 228 272 346 408
#     4  10  21  38  62  98 138 171 219 290 357 399
#     4  10  18  46  66 104 132 190 244 284 316 416
#     4  10  21  35  61  98 131 172 218 287 352 402
#     4  10  20  42  68 102 134 194 250 256 340 438
#     4   9  22  36  71  95 136 184 231 290 335 414
#
# _framework density 22.579232999999999
#
# number of rings (size 3 to 8) (size 9 to 14) (size 15 to 20)
#    1.600    0.533    2.667    0.800    1.867    0.533 
#    0.000    0.667    0.000    0.000    0.000    1.867 
#    0.000    0.000    0.000    0.000    0.000    0.000 
#
# Total GULP energy -167123.159146 kJ/mol
# GULP energy per Si atom -5570.771972 kJ/mol
# Density = 2.252784 g / cm^3
# Si number density = 22.579233 Si / 1000 Ang^3
#
#
#
# Elastic Constant Matrix: (Units=GPa)
#
#
# Indices 1 2 3 4 5 6 
#
# 1 136.3636 49.3467 23.0936 0.0000 0.0000 0.0000
# 2 49.3467 136.3636 23.0936 0.0000 0.0000 0.0000
# 3 23.0936 23.0936 43.7960 0.0000 0.0000 0.0000
# 4 0.0000 0.0000 0.0000 56.8250 0.0000 0.0000
# 5 0.0000 0.0000 0.0000 0.0000 56.8250 0.0000
# 6 0.0000 0.0000 0.0000 0.0000 0.0000 32.8332
#
#
#
# Elastic Compliance Matrix: (Units=1/GPa)
#
#
# Indices 1 2 3 4 5 6 
#
# 1 0.008845 -0.002647 -0.003268 0.000000 0.000000 0.000000
# 2 -0.002647 0.008845 -0.003268 0.000000 0.000000 0.000000
# 3 -0.003268 -0.003268 0.026279 0.000000 0.000000 0.000000
# 4 0.000000 0.000000 0.000000 0.017598 0.000000 0.000000
# 5 0.000000 0.000000 0.000000 0.000000 0.017598 0.000000
# 6 0.000000 0.000000 0.000000 0.000000 0.000000 0.030457
#
#
# Mechanical properties :
#
#
# Convention : Reuss Voigt Hill
#
# Bulk Modulus (GPa) = 39.05830 56.39899 47.72865
# Shear Modulus (GPa) = 36.62409 44.02929 40.32669
#
# Velocity S-wave (km/s) = 4.03181 4.42066 4.23070
# Velocity P-wave (km/s) = 6.24579 7.14764 6.71188
#
# Compressibility (1/GPa) = 0.02560275
#
# Stress axis : x y z
#
# Youngs Moduli (GPa) = 113.06143 113.06143 38.05251
#
# Poissons Ratio (x) = 0.29930 0.12435
# Poissons Ratio (y) = 0.29930 0.12435
# Poissons Ratio (z) = 0.36948 0.36948
#
# Static dielectric constant tensor:
#      x y z
#    x 1.718700 0.000000 0.000000 
#    y 0.000000 1.718700 0.000000 
#    z 0.000000 0.000000 1.871810 
# 
# From -- ./inp_files/4612.got.cif
#   From: 2010.05.17/outbox.cif.g08.bks.cpg/sg112_3_cif.got.tgz:4612.got - 2010.05.20 10:59:04.
