data_PCOD9555874
_publ_section_title
;
Structure prediction by ZEFSAII (Michael W. Deem and Ramdas Pophale) SiO2 
 PCOD9555874
Probable space group: P -4 21 C
;
_chemical_formula_sum "Si O2"
_cell_formula_units_Z 64
_cell_length_a 23.804072
_cell_length_b 23.804072
_cell_length_c 5.420544
_cell_angle_alpha 90.000000
_cell_angle_beta 90.000000
_cell_angle_gamma 90.000000
_cell_volume 3071.463682
_symmetry_space_group_name_H-M "P -4 21 C"
_symmetry_group_IT_number 114
_symmetry_cell_setting 'tetragonal'
loop_
_space_group_symop_operation_xyz
x,y,z
y,-x,-z
-x,-y,z
-y,x,-z
1/2+x,1/2-y,1/2-z
1/2-x,1/2+y,1/2-z
1/2-y,1/2-x,1/2+z
1/2+y,1/2+x,1/2+z
loop_
_atom_site_type_symbol
_atom_site_label
_atom_site_fract_x
_atom_site_fract_y
_atom_site_fract_z
Si Si1 0.300392 0.152979 0.899918
Si Si2 0.825708 0.966982 0.308793
Si Si3 0.092275 0.147639 0.611205
Si Si4 0.151230 0.323578 0.329978
Si Si5 0.954862 0.236709 0.179949
Si Si6 0.684018 0.282310 0.681625
Si Si7 0.556379 0.571796 0.522250
Si Si8 0.724387 0.583344 0.710743
O O1 0.338261 0.176641 0.675884
O O2 0.287309 0.088621 0.831074
O O3 0.241757 0.188255 0.891202
O O4 0.796736 0.949000 0.561883
O O5 0.890264 0.949108 0.269058
O O6 0.822152 0.034783 0.286847
O O7 0.797961 0.940550 0.066785
O O8 0.077812 0.162072 0.324922
O O9 0.153754 0.176815 0.621926
O O10 0.093154 0.095178 0.797044
O O11 0.135245 0.348146 0.062439
O O12 0.216206 0.305250 0.268121
O O13 0.110273 0.271969 0.388590
O O14 0.021488 0.247211 0.155185
O O15 0.632335 0.280403 0.489301
O O16 0.571468 0.507619 0.578458
#
# Coordination Sequence:
#
# PCOD9555874 Si02
#       8
#     8   8   8   8   8   8   8   8
#     4  12  27  43  62  91 127 172 217 255 311 382
#     4  10  21  41  60  87 113 157 209 265 323 367
#     4  10  19  35  60  85 117 156 205 250 324 379
#     4  10  19  32  54  87 122 150 182 231 304 375
#     4  11  23  43  66  86 122 162 211 265 306 384
#     4  11  21  37  59  88 129 159 195 256 320 381
#     4   9  19  38  58  80 115 161 224 285 326 373
#     4  10  21  37  63  93 123 161 203 254 325 381
#
# _framework density 20.836971999999999
#
# number of rings (size 3 to 8) (size 9 to 14) (size 15 to 20)
#    0.000    1.625    2.500    3.000    1.750    0.000 
#    4.500    1.250    0.000    3.000    0.000    0.000 
#    0.000   12.000    0.000    0.000    0.000    0.000 
#
# Total GULP energy -356540.227285 kJ/mol
# GULP energy per Si atom -5570.941051 kJ/mol
# Density = 2.078955 g / cm^3
# Si number density = 20.836972 Si / 1000 Ang^3
#
#
#
# Elastic Constant Matrix: (Units=GPa)
#
#
# Indices 1 2 3 4 5 6 
#
# 1 78.1193 30.0130 18.9161 0.0000 0.0000 0.0000
# 2 30.0130 78.1193 18.9161 0.0000 0.0000 0.0000
# 3 18.9161 18.9161 92.8664 0.0000 0.0000 0.0000
# 4 0.0000 0.0000 0.0000 28.1125 0.0000 0.0000
# 5 0.0000 0.0000 0.0000 0.0000 28.1125 0.0000
# 6 0.0000 0.0000 0.0000 0.0000 0.0000 25.4242
#
#
#
# Elastic Compliance Matrix: (Units=1/GPa)
#
#
# Indices 1 2 3 4 5 6 
#
# 1 0.015372 -0.005415 -0.002028 0.000000 0.000000 0.000000
# 2 -0.005415 0.015372 -0.002028 0.000000 0.000000 0.000000
# 3 -0.002028 -0.002028 0.011594 0.000000 0.000000 0.000000
# 4 0.000000 0.000000 0.000000 0.035571 0.000000 0.000000
# 5 0.000000 0.000000 0.000000 0.000000 0.035571 0.000000
# 6 0.000000 0.000000 0.000000 0.000000 0.000000 0.039333
#
#
# Mechanical properties :
#
#
# Convention : Reuss Voigt Hill
#
# Bulk Modulus (GPa) = 42.74146 42.75503 42.74825
# Shear Modulus (GPa) = 27.84639 28.41379 28.13009
#
# Velocity S-wave (km/s) = 3.65964 3.69673 3.67823
# Velocity P-wave (km/s) = 6.19791 6.22772 6.21283
#
# Compressibility (1/GPa) = 0.02339649
#
# Stress axis : x y z
#
# Youngs Moduli (GPa) = 65.05149 65.05149 86.24818
#
# Poissons Ratio (x) = 0.35225 0.17493
# Poissons Ratio (y) = 0.35225 0.17493
# Poissons Ratio (z) = 0.13194 0.13194
#
# Static dielectric constant tensor:
#      x y z
#    x 1.824810 0.000000 0.000000 
#    y 0.000000 1.824810 0.000000 
#    z 0.000000 0.000000 1.957540 
# 
# From -- ./inp_files/298.got.cif
#   From: 2010.05.17/outbox.cif.g08.bks.cpg/sg114_1_cif.got.tgz:298.got - 2010.05.20 11:04:54.
