data_PCOD9555399
_publ_section_title
;
Structure prediction by ZEFSAII (Michael W. Deem and Ramdas Pophale) SiO2 
 PCOD9555399
Probable space group: P -4 2 C
;
_chemical_formula_sum "Si O2"
_cell_formula_units_Z 32
_cell_length_a 9.272686
_cell_length_b 9.272686
_cell_length_c 17.291457
_cell_angle_alpha 90.000000
_cell_angle_beta 90.000000
_cell_angle_gamma 90.000000
_cell_volume 1486.766258
_symmetry_space_group_name_H-M "P -4 2 C"
_symmetry_group_IT_number 112
_symmetry_cell_setting 'tetragonal'
loop_
_space_group_symop_operation_xyz
x,y,z
y,-x,-z
-x,-y,z
-y,x,-z
x,-y,1/2-z
-x,y,1/2-z
-y,-x,1/2+z
y,x,1/2+z
loop_
_atom_site_type_symbol
_atom_site_label
_atom_site_fract_x
_atom_site_fract_y
_atom_site_fract_z
Si Si1 0.765266 0.197909 0.062336
Si Si2 0.500000 0.500000 0.500000
Si Si3 0.366680 0.724620 0.405384
Si Si4 0.162483 0.475092 0.341509
Si Si5 0.000000 0.000000 0.000000
Si Si6 0.500000 0.000000 0.110301
O O1 0.783963 0.318341 0.129557
O O2 0.626776 0.090982 0.067814
O O3 0.775875 0.281239 0.980795
O O4 0.903836 0.096176 0.056935
O O5 0.499468 0.637341 0.444465
O O6 0.270228 0.600102 0.369138
O O7 0.414511 0.861607 0.354384
O O8 0.157039 0.500000 0.250000
O O9 0.000000 0.500000 0.372887
#
# Coordination Sequence:
#
# PCOD9555399 Si02
#       6
#     8   2   8   8   2   4
#     4  12  23  40  70 105 140 183 233 298 348 423
#     4  12  20  36  66 100 132 172 222 280 340 396
#     4  12  22  39  69 101 135 178 234 286 337 417
#     4  11  26  48  72  98 140 192 240 285 357 439
#     4  12  24  36  68 114 144 172 236 310 360 404
#     4  12  24  38  65 108 137 178 230 288 364 396
#
# _framework density 21.523223999999999
#
# number of rings (size 3 to 8) (size 9 to 14) (size 15 to 20)
#    0.000    0.250    7.500    1.500    3.500    0.000 
#    0.000    8.125    0.000    0.000    0.000    0.000 
#    0.000    0.000    0.000    0.000    0.000    0.000 
#
# Total GULP energy -178294.851851 kJ/mol
# GULP energy per Si atom -5571.714120 kJ/mol
# Density = 2.147424 g / cm^3
# Si number density = 21.523224 Si / 1000 Ang^3
#
#
#
# Elastic Constant Matrix: (Units=GPa)
#
#
# Indices 1 2 3 4 5 6 
#
# 1 163.9384 68.6663 30.9109 0.0000 0.0000 0.0000
# 2 68.6663 163.9384 30.9109 0.0000 0.0000 0.0000
# 3 30.9109 30.9109 55.1077 0.0000 0.0000 0.0000
# 4 0.0000 0.0000 0.0000 6.6259 0.0000 0.0000
# 5 0.0000 0.0000 0.0000 0.0000 6.6259 0.0000
# 6 0.0000 0.0000 0.0000 0.0000 0.0000 61.8631
#
#
#
# Elastic Compliance Matrix: (Units=1/GPa)
#
#
# Indices 1 2 3 4 5 6 
#
# 1 0.007774 -0.002722 -0.002834 0.000000 0.000000 0.000000
# 2 -0.002722 0.007774 -0.002834 0.000000 0.000000 0.000000
# 3 -0.002834 -0.002834 0.021325 0.000000 0.000000 0.000000
# 4 0.000000 0.000000 0.000000 0.150923 0.000000 0.000000
# 5 0.000000 0.000000 0.000000 0.000000 0.150923 0.000000
# 6 0.000000 0.000000 0.000000 0.000000 0.000000 0.016165
#
#
# Mechanical properties :
#
#
# Convention : Reuss Voigt Hill
#
# Bulk Modulus (GPa) = 49.76513 71.55118 60.65816
# Shear Modulus (GPa) = 13.21485 31.85609 22.53547
#
# Velocity S-wave (km/s) = 2.48055 3.85135 3.23930
# Velocity P-wave (km/s) = 5.60143 7.28650 6.49881
#
# Compressibility (1/GPa) = 0.02009439
#
# Stress axis : x y z
#
# Youngs Moduli (GPa) = 128.62892 128.62892 46.89222
#
# Poissons Ratio (x) = 0.35012 0.13289
# Poissons Ratio (y) = 0.35012 0.13289
# Poissons Ratio (z) = 0.36453 0.36453
#
# Static dielectric constant tensor:
#      x y z
#    x 1.908400 0.000000 0.000000 
#    y 0.000000 1.908400 0.000000 
#    z 0.000000 0.000000 1.761370 
# 
# From -- ./inp_files/4616.got.cif
#   From: 2010.05.17/outbox.cif.g08.bks.cpg/sg112_3_cif.got.tgz:4616.got - 2010.05.20 10:59:04.
