data_PCOD9555041
_publ_section_title
;
Structure prediction by ZEFSAII (Michael W. Deem and Ramdas Pophale) SiO2 
 PCOD9555041
Probable space group: P -4 2 C
;
_chemical_formula_sum "Si O2"
_cell_formula_units_Z 40
_cell_length_a 16.468545
_cell_length_b 16.468545
_cell_length_c 9.418403
_cell_angle_alpha 90.000000
_cell_angle_beta 90.000000
_cell_angle_gamma 90.000000
_cell_volume 2554.393092
_symmetry_space_group_name_H-M "P -4 2 C"
_symmetry_group_IT_number 112
_symmetry_cell_setting 'tetragonal'
loop_
_space_group_symop_operation_xyz
x,y,z
y,-x,-z
-x,-y,z
-y,x,-z
x,-y,1/2-z
-x,y,1/2-z
-y,-x,1/2+z
y,x,1/2+z
loop_
_atom_site_type_symbol
_atom_site_label
_atom_site_fract_x
_atom_site_fract_y
_atom_site_fract_z
Si Si1 0.093694 0.910788 0.207904
Si Si2 0.337149 0.097121 0.081218
Si Si3 0.500299 0.098504 0.586510
Si Si4 0.166263 0.172314 0.041913
Si Si5 0.903064 0.662743 0.919974
O O1 0.109594 0.890809 0.045046
O O2 0.141669 0.842492 0.295420
O O3 0.000000 0.907584 0.250000
O O4 0.125972 0.000000 0.250000
O O5 0.345374 0.109300 0.250836
O O6 0.324186 0.000192 0.058270
O O7 0.418551 0.121773 0.998367
O O8 0.259036 0.145656 0.026841
O O9 0.500000 0.126502 0.750000
O O10 0.419301 0.121645 0.501206
O O11 0.500000 0.000000 0.589084
O O12 0.143828 0.260492 0.984303
#
# Coordination Sequence:
#
# PCOD9555041 Si02
#       5
#     8   8   8   8   8
#     4  11  22  34  46  64  96 138 180 217 250 286
#     4  10  20  35  51  70  98 132 169 210 261 310
#     4   9  19  33  53  75  93 120 161 212 263 313
#     4  12  22  33  50  72  98 133 176 218 256 300
#     4  10  20  35  51  70  98 132 169 210 261 310
#
# _framework density 15.659295999999999
#
# number of rings (size 3 to 8) (size 9 to 14) (size 15 to 20)
#    0.000    1.600    2.000    4.200    2.800    4.000 
#    0.000    0.000    0.000    0.000    0.000    0.000 
#    0.000    0.800    0.000    5.600    0.000    1.400 
#
# Total GULP energy -223307.432253 kJ/mol
# GULP energy per Si atom -5582.685806 kJ/mol
# Density = 1.562365 g / cm^3
# Si number density = 15.659296 Si / 1000 Ang^3
#
#
#
# Elastic Constant Matrix: (Units=GPa)
#
#
# Indices 1 2 3 4 5 6 
#
# 1 102.0199 38.0680 44.5734 0.0000 0.0000 0.0000
# 2 38.0680 102.0199 44.5734 0.0000 0.0000 0.0000
# 3 44.5734 44.5734 85.5945 0.0000 0.0000 0.0000
# 4 0.0000 0.0000 0.0000 24.1616 0.0000 0.0000
# 5 0.0000 0.0000 0.0000 0.0000 24.1616 0.0000
# 6 0.0000 0.0000 0.0000 0.0000 0.0000 14.3572
#
#
#
# Elastic Compliance Matrix: (Units=1/GPa)
#
#
# Indices 1 2 3 4 5 6 
#
# 1 0.013157 -0.002480 -0.005560 0.000000 0.000000 0.000000
# 2 -0.002480 0.013157 -0.005560 0.000000 0.000000 0.000000
# 3 -0.005560 -0.005560 0.017473 0.000000 0.000000 0.000000
# 4 0.000000 0.000000 0.000000 0.041388 0.000000 0.000000
# 5 0.000000 0.000000 0.000000 0.000000 0.041388 0.000000
# 6 0.000000 0.000000 0.000000 0.000000 0.000000 0.069652
#
#
# Mechanical properties :
#
#
# Convention : Reuss Voigt Hill
#
# Bulk Modulus (GPa) = 60.28710 60.45154 60.36932
# Shear Modulus (GPa) = 21.83953 23.36403 22.60178
#
# Velocity S-wave (km/s) = 3.73858 3.86686 3.80326
# Velocity P-wave (km/s) = 7.56431 7.65669 7.61064
#
# Compressibility (1/GPa) = 0.01658730
#
# Stress axis : x y z
#
# Youngs Moduli (GPa) = 76.00768 76.00768 57.22967
#
# Poissons Ratio (x) = 0.18851 0.31818
# Poissons Ratio (y) = 0.18851 0.31818
# Poissons Ratio (z) = 0.42258 0.42258
#
# Static dielectric constant tensor:
#      x y z
#    x 1.507680 0.000000 0.000000 
#    y 0.000000 1.507680 0.000000 
#    z 0.000000 0.000000 1.527920 
# 
# From -- ./inp_files/1220.got.cif
#   From: 2010.05.17/outbox.cif.g08.bks.cpg/sg112_1_cif.got.tgz:1220.got - 2010.05.20 10:59:04.
