data_PCOD9555703
_publ_section_title
;
Structure prediction by ZEFSAII (Michael W. Deem and Ramdas Pophale) SiO2 
 PCOD9555703
Probable space group: P -4 21 M 
;
_chemical_formula_sum "Si O2"
_cell_formula_units_Z 56
_cell_length_a 10.514659
_cell_length_b 10.514659
_cell_length_c 25.084605
_cell_angle_alpha 90.000000
_cell_angle_beta 90.000000
_cell_angle_gamma 90.000000
_cell_volume 2773.305111
_symmetry_space_group_name_H-M "P -4 21 M "
_symmetry_group_IT_number 113
_symmetry_cell_setting 'tetragonal'
loop_
_space_group_symop_operation_xyz
x,y,z
y,-x,-z
-x,-y,z
-y,x,-z
1/2+x,1/2-y,-z
1/2-x,1/2+y,-z
1/2-y,1/2-x,z
1/2+y,1/2+x,z
loop_
_atom_site_type_symbol
_atom_site_label
_atom_site_fract_x
_atom_site_fract_y
_atom_site_fract_z
Si Si1 0.978277 0.214988 0.366235
Si Si2 0.189215 0.907142 0.233358
Si Si3 0.398111 0.101890 0.425437
Si Si4 0.606904 0.893097 0.542683
Si Si5 0.709273 0.000995 0.123520
Si Si6 0.332036 0.612892 0.981761
Si Si7 0.699162 0.006668 0.748710
Si Si8 0.008331 0.807240 0.655328
O O1 0.955382 0.281267 0.422126
O O2 0.001802 0.303764 0.315664
O O3 0.853955 0.133957 0.353751
O O4 0.090089 0.112743 0.362303
O O5 0.298101 0.798101 0.240777
O O6 0.210180 0.964172 0.175313
O O7 0.051725 0.836880 0.237179
O O8 0.210128 0.009087 0.280879
O O9 0.350447 0.149554 0.483330
O O10 0.465445 0.198002 0.385881
O O11 0.500000 0.000000 0.441488
O O12 0.500000 0.000000 0.542868
O O13 0.626555 0.126555 0.106901
O O14 0.604447 0.895554 0.138393
O O15 0.792104 0.942119 0.076042
O O16 0.224185 0.724185 0.994793
O O17 0.478499 0.665502 0.984225
O O18 0.597310 0.902690 0.768931
O O19 0.644447 0.144447 0.765452
#
# Coordination Sequence:
#
# PCOD9555703 Si02
#       8
#     8   8   4   4   8   8   8   8
#     4  10  21  39  60  81 110 146 193 242 300 369
#     4   9  18  34  59  90 125 161 197 254 315 369
#     4  11  26  40  56  85 115 145 185 239 308 377
#     4  11  24  40  62  81 105 147 193 243 298 365
#     4   9  18  34  60  95 130 171 219 264 315 383
#     4  10  21  39  66 100 137 183 232 284 338 396
#     4   9  16  29  55  85 112 149 195 242 296 364
#     4  10  23  39  59  88 114 150 190 243 308 369
#
# _framework density 20.192513000000002
#
# number of rings (size 3 to 8) (size 9 to 14) (size 15 to 20)
#    0.000    2.286    0.714    1.286    5.000    2.000 
#    0.000    7.143    0.000    7.714    1.857    8.000 
#    0.000    0.000    0.000    0.000    0.000    0.000 
#
# Total GULP energy -311749.651665 kJ/mol
# GULP energy per Si atom -5566.958065 kJ/mol
# Density = 2.014655 g / cm^3
# Si number density = 20.192513 Si / 1000 Ang^3
#
#
#
# Elastic Constant Matrix: (Units=GPa)
#
#
# Indices 1 2 3 4 5 6 
#
# 1 84.1836 40.7413 51.3214 0.0000 0.0000 0.0000
# 2 40.7413 84.1805 51.3208 0.0000 0.0000 0.0000
# 3 51.3214 51.3208 116.4147 0.0000 0.0000 0.0000
# 4 0.0000 0.0000 0.0000 -2.8012 0.0000 0.0000
# 5 0.0000 0.0000 0.0000 0.0000 -2.7895 0.0000
# 6 0.0000 0.0000 0.0000 0.0000 0.0000 34.8220
#
#
#
# Elastic Compliance Matrix: (Units=1/GPa)
#
#
# Indices 1 2 3 4 5 6 
#
# 1 0.017785 -0.005234 -0.005533 0.000000 0.000000 0.000000
# 2 -0.005234 0.017786 -0.005533 0.000000 0.000000 0.000000
# 3 -0.005533 -0.005533 0.013469 0.000000 0.000000 0.000000
# 4 0.000000 0.000000 0.000000 -0.356989 0.000000 0.000000
# 5 0.000000 0.000000 0.000000 0.000000 -0.358492 0.000000
# 6 0.000000 0.000000 0.000000 0.000000 0.000000 0.028717
#
#
# Mechanical properties :
#
#
# Convention : Reuss Voigt Hill
#
# Bulk Modulus (GPa) = 60.83362 63.50508 62.16935
# Shear Modulus (GPa) = -8.33830 15.27261 3.46716
#
# Velocity S-wave (km/s) = -2.03430 2.75317 1.31178
# Velocity P-wave (km/s) = 4.96733 6.45172 5.75756
#
# Compressibility (1/GPa) = 0.01643828
#
# Stress axis : x y z
#
# Youngs Moduli (GPa) = 56.22666 56.22432 74.24715
#
# Poissons Ratio (x) = 0.29430 0.41081
# Poissons Ratio (y) = 0.29431 0.41083
# Poissons Ratio (z) = 0.31110 0.31110
#
# Static dielectric constant tensor:
#      x y z
#    x 1.776710 0.000000 0.000000 
#    y 0.000000 1.776600 0.000000 
#    z 0.000000 0.000000 1.740230 
# 
# From -- ./inp_files/2850.got.cif
#   From: 2010.05.17/outbox.cif.g08.bks.cpg/sg113_cif.got.tgz:2850.got - 2010.05.20 11:03:00.
