data_PCOD9555026
_publ_section_title
;
Structure prediction by ZEFSAII (Michael W. Deem and Ramdas Pophale) SiO2 
 PCOD9555026
Probable space group: P -4 2 C
;
_chemical_formula_sum "Si O2"
_cell_formula_units_Z 48
_cell_length_a 11.895999
_cell_length_b 11.895999
_cell_length_c 20.908912
_cell_angle_alpha 90.000000
_cell_angle_beta 90.000000
_cell_angle_gamma 90.000000
_cell_volume 2958.920337
_symmetry_space_group_name_H-M "P -4 2 C"
_symmetry_group_IT_number 112
_symmetry_cell_setting 'tetragonal'
loop_
_space_group_symop_operation_xyz
x,y,z
y,-x,-z
-x,-y,z
-y,x,-z
x,-y,1/2-z
-x,y,1/2-z
-y,-x,1/2+z
y,x,1/2+z
loop_
_atom_site_type_symbol
_atom_site_label
_atom_site_fract_x
_atom_site_fract_y
_atom_site_fract_z
Si Si1 0.635261 0.244990 0.823446
Si Si2 1.000000 0.636074 0.371871
Si Si3 0.000000 0.636344 0.980292
Si Si4 0.753306 0.634800 0.939921
Si Si5 0.246694 0.365201 0.560079
Si Si6 0.244990 0.364738 0.323446
O O1 0.668182 0.115314 0.837274
O O2 0.697864 0.320879 0.875072
O O3 0.659718 0.274171 0.750000
O O4 0.499999 0.253852 0.832844
O O5 0.999999 0.674480 0.445661
O O6 0.000000 0.500000 0.372913
O O7 0.884686 0.668182 0.337273
O O8 0.883987 0.669776 0.946739
O O9 0.000000 0.500000 0.981986
O O10 0.116013 0.669775 0.946739
O O11 0.746914 0.500000 0.943462
O O12 0.697865 0.679122 0.875071
O O13 0.687522 0.687523 1.000000
#
# Coordination Sequence:
#
# PCOD9555026 Si02
#       6
#     8   8   8   8   8   8
#     4  10  20  33  52  79 109 139 171 210 257 308
#     4   9  15  30  53  77 102 133 175 216 251 296
#     4   9  18  33  53  75  99 133 178 217 247 297
#     4  11  21  34  53  77 105 137 173 213 258 307
#     4  11  21  34  53  77 105 137 173 213 258 307
#     4  10  20  33  52  79 109 139 171 210 257 308
#
# _framework density 16.222132999999999
#
# number of rings (size 3 to 8) (size 9 to 14) (size 15 to 20)
#    0.000    2.000    3.333    1.500    0.000    5.000 
#    0.000    2.500    0.000    6.500    0.000    2.333 
#    0.000    0.000    0.000    0.000    0.000    0.000 
#
# Total GULP energy -267670.935956 kJ/mol
# GULP energy per Si atom -5576.477832 kJ/mol
# Density = 1.618521 g / cm^3
# Si number density = 16.222133 Si / 1000 Ang^3
#
#
#
# Elastic Constant Matrix: (Units=GPa)
#
#
# Indices 1 2 3 4 5 6 
#
# 1 86.1500 44.1175 63.6445 0.0000 0.0000 0.0000
# 2 44.1175 86.1500 63.6445 0.0000 0.0000 0.0000
# 3 63.6445 63.6445 151.1088 0.0000 0.0000 0.0000
# 4 0.0000 0.0000 0.0000 27.6012 0.0000 0.0000
# 5 0.0000 0.0000 0.0000 0.0000 27.6012 0.0000
# 6 0.0000 0.0000 0.0000 0.0000 0.0000 -11.6462
#
#
#
# Elastic Compliance Matrix: (Units=1/GPa)
#
#
# Indices 1 2 3 4 5 6 
#
# 1 0.018418 -0.005373 -0.005494 0.000000 0.000000 0.000000
# 2 -0.005373 0.018418 -0.005494 0.000000 0.000000 0.000000
# 3 -0.005494 -0.005494 0.011246 0.000000 0.000000 0.000000
# 4 0.000000 0.000000 0.000000 0.036230 0.000000 0.000000
# 5 0.000000 0.000000 0.000000 0.000000 0.036230 0.000000
# 6 0.000000 0.000000 0.000000 0.000000 0.000000 -0.085865
#
#
# Mechanical properties :
#
#
# Convention : Reuss Voigt Hill
#
# Bulk Modulus (GPa) = 65.10879 74.02463 69.56671
# Shear Modulus (GPa) = 68.94471 18.84473 43.89472
#
# Velocity S-wave (km/s) = 6.52631 3.41202 5.20743
# Velocity P-wave (km/s) = 9.84952 7.82646 8.89569
#
# Compressibility (1/GPa) = 0.01535891
#
# Stress axis : x y z
#
# Youngs Moduli (GPa) = 54.29397 54.29397 88.91946
#
# Poissons Ratio (x) = 0.29171 0.48857
# Poissons Ratio (y) = 0.29171 0.48857
# Poissons Ratio (z) = 0.29832 0.29832
#
# Static dielectric constant tensor:
#      x y z
#    x 1.540250 0.000000 0.000000 
#    y 0.000000 1.540250 0.000000 
#    z 0.000000 0.000000 1.531650 
# 
# From -- ./inp_files/4881.got.cif
#   From: 2010.05.17/outbox.cif.g08.bks.cpg/sg112_3_cif.got.tgz:4881.got - 2010.05.20 10:59:04.
