data_PCOD9555001
_publ_section_title
;
Structure prediction by ZEFSAII (Michael W. Deem and Ramdas Pophale) SiO2 
 PCOD9555001
Probable space group: P -4 2 C
;
_chemical_formula_sum "Si O2"
_cell_formula_units_Z 40
_cell_length_a 9.980492
_cell_length_b 9.980492
_cell_length_c 23.314165
_cell_angle_alpha 90.000000
_cell_angle_beta 90.000000
_cell_angle_gamma 90.000000
_cell_volume 2322.329118
_symmetry_space_group_name_H-M "P -4 2 C"
_symmetry_group_IT_number 112
_symmetry_cell_setting 'tetragonal'
loop_
_space_group_symop_operation_xyz
x,y,z
y,-x,-z
-x,-y,z
-y,x,-z
x,-y,1/2-z
-x,y,1/2-z
-y,-x,1/2+z
y,x,1/2+z
loop_
_atom_site_type_symbol
_atom_site_label
_atom_site_fract_x
_atom_site_fract_y
_atom_site_fract_z
Si Si1 0.225954 0.339670 0.122279
Si Si2 0.225954 0.660329 0.122279
Si Si3 0.338937 0.500000 0.813990
Si Si4 0.839413 1.000000 0.819195
Si Si5 0.657026 0.342973 0.500000
O O1 0.195695 0.500000 0.131251
O O2 0.367216 0.307058 0.151645
O O3 0.122880 0.239891 0.151888
O O4 0.247990 0.319509 0.054332
O O5 0.367216 0.692941 0.151645
O O6 0.247990 0.680491 0.054332
O O7 0.122880 0.760109 0.151888
O O8 0.500000 0.500000 0.809402
O O9 0.281640 0.500000 0.750000
O O10 0.821627 0.000000 0.750000
O O11 0.000000 0.000000 0.830340
O O12 0.500000 0.328480 0.482784
#
# Coordination Sequence:
#
# PCOD9555001 Si02
#       5
#     8   8   8   8   8
#     4  10  19  35  60  88 113 149 191 239 287 342
#     4  10  19  35  60  88 113 149 191 239 287 342
#     4   9  16  28  53  89 115 135 178 239 293 337
#     4  11  25  43  57  77 117 161 200 241 286 335
#     4   9  16  32  59  90 122 144 179 234 297 350
#
# _framework density 17.224087000000001
#
# number of rings (size 3 to 8) (size 9 to 14) (size 15 to 20)
#    0.000    2.200    2.000    1.800    0.000    3.200 
#    3.600    1.000    0.000    3.600    0.000    0.000 
#    0.000    0.000    0.000    0.000    0.000    0.000 
#
# Total GULP energy -222838.902549 kJ/mol
# GULP energy per Si atom -5570.972564 kJ/mol
# Density = 1.718488 g / cm^3
# Si number density = 17.224087 Si / 1000 Ang^3
#
#
#
# Elastic Constant Matrix: (Units=GPa)
#
#
# Indices 1 2 3 4 5 6 
#
# 1 120.1076 76.7962 71.5785 0.0000 0.0000 0.0000
# 2 76.7962 120.1076 71.5785 0.0000 0.0000 0.0000
# 3 71.5785 71.5785 131.4769 0.0000 0.0000 0.0000
# 4 0.0000 0.0000 0.0000 27.7973 0.0000 0.0000
# 5 0.0000 0.0000 0.0000 0.0000 27.7973 0.0000
# 6 0.0000 0.0000 0.0000 0.0000 0.0000 19.5333
#
#
#
# Elastic Compliance Matrix: (Units=1/GPa)
#
#
# Indices 1 2 3 4 5 6 
#
# 1 0.015747 -0.007341 -0.004576 0.000000 0.000000 0.000000
# 2 -0.007341 0.015747 -0.004576 0.000000 0.000000 0.000000
# 3 -0.004576 -0.004576 0.012589 0.000000 0.000000 0.000000
# 4 0.000000 0.000000 0.000000 0.035975 0.000000 0.000000
# 5 0.000000 0.000000 0.000000 0.000000 0.035975 0.000000
# 6 0.000000 0.000000 0.000000 0.000000 0.000000 0.051195
#
#
# Mechanical properties :
#
#
# Convention : Reuss Voigt Hill
#
# Bulk Modulus (GPa) = 90.12917 90.17763 90.15340
# Shear Modulus (GPa) = 24.52021 25.14149 24.83085
#
# Velocity S-wave (km/s) = 3.77716 3.82471 3.80101
# Velocity P-wave (km/s) = 8.45361 8.48373 8.46869
#
# Compressibility (1/GPa) = 0.01109519
#
# Stress axis : x y z
#
# Youngs Moduli (GPa) = 63.50346 63.50346 79.43638
#
# Poissons Ratio (x) = 0.46621 0.36352
# Poissons Ratio (y) = 0.46621 0.36352
# Poissons Ratio (z) = 0.29061 0.29061
#
# Static dielectric constant tensor:
#      x y z
#    x 1.444980 0.000000 0.000000 
#    y 0.000000 1.444980 0.000000 
#    z 0.000000 0.000000 1.602930 
# 
# From -- ./inp_files/5325.got.cif
#   From: 2010.05.17/outbox.cif.g08.bks.cpg/sg112_3_cif.got.tgz:5325.got - 2010.05.20 10:59:04.
