data_PCOD9555955
_publ_section_title
;
Structure prediction by ZEFSAII (Michael W. Deem and Ramdas Pophale) SiO2 
 PCOD9555955
Probable space group: P -4 21 C
;
_chemical_formula_sum "Si O2"
_cell_formula_units_Z 48
_cell_length_a 16.907980
_cell_length_b 16.907980
_cell_length_c 8.137343
_cell_angle_alpha 90.000000
_cell_angle_beta 90.000000
_cell_angle_gamma 90.000000
_cell_volume 2326.301889
_symmetry_space_group_name_H-M "P -4 21 C"
_symmetry_group_IT_number 114
_symmetry_cell_setting 'tetragonal'
loop_
_space_group_symop_operation_xyz
x,y,z
y,-x,-z
-x,-y,z
-y,x,-z
1/2+x,1/2-y,1/2-z
1/2-x,1/2+y,1/2-z
1/2-y,1/2-x,1/2+z
1/2+y,1/2+x,1/2+z
loop_
_atom_site_type_symbol
_atom_site_label
_atom_site_fract_x
_atom_site_fract_y
_atom_site_fract_z
Si Si1 0.415340 0.411928 0.941146
Si Si2 0.624209 0.994048 0.945672
Si Si3 0.411928 0.584660 0.441146
Si Si4 0.994048 0.375791 0.445672
Si Si5 0.254372 0.882688 0.551394
Si Si6 0.745628 0.117312 0.948606
O O1 0.430185 0.392253 0.750000
O O2 0.335424 0.371659 0.004581
O O3 0.398074 0.505968 0.955443
O O4 0.626339 0.992775 0.750000
O O5 0.705502 0.034327 0.006262
O O6 0.558103 0.058103 1.000000
O O7 0.591017 0.908983 0.000000
O O8 0.505968 0.601926 0.455443
O O9 0.371659 0.664576 0.504581
O O10 0.034327 0.294498 0.506262
O O11 0.251603 0.885560 0.750000
O O12 0.312478 0.812478 0.500000
#
# Coordination Sequence:
#
# PCOD9555955 Si02
#       6
#     8   8   8   8   8   8
#     4  10  20  36  56  78 101 132 172 213 253 300
#     4   9  15  25  41  64  93 127 162 197 236 288
#     4  10  20  36  56  78 101 132 172 213 253 300
#     4   9  15  25  41  64  93 127 162 197 236 288
#     4   9  19  33  51  75 104 133 166 207 254 301
#     4   9  19  33  51  75 104 133 166 207 254 301
#
# _framework density 20.633609
#
# number of rings (size 3 to 8) (size 9 to 14) (size 15 to 20)
#    0.000    2.667    0.000    4.000    0.000    4.000 
#    0.000    1.667    0.000    8.000    0.000    0.000 
#    0.000    0.000    0.000    0.000    0.000    0.000 
#
# Total GULP energy -267422.351351 kJ/mol
# GULP energy per Si atom -5571.298986 kJ/mol
# Density = 2.058665 g / cm^3
# Si number density = 20.633609 Si / 1000 Ang^3
#
#
#
# Elastic Constant Matrix: (Units=GPa)
#
#
# Indices 1 2 3 4 5 6 
#
# 1 43.2857 -3.2992 -11.2438 0.0000 0.0000 0.0000
# 2 -3.2992 43.2857 -11.2438 0.0000 0.0000 0.0000
# 3 -11.2438 -11.2438 25.2160 0.0000 0.0000 0.0000
# 4 0.0000 0.0000 0.0000 18.9626 0.0000 0.0000
# 5 0.0000 0.0000 0.0000 0.0000 18.9626 0.0000
# 6 0.0000 0.0000 0.0000 0.0000 0.0000 7.8104
#
#
#
# Elastic Compliance Matrix: (Units=1/GPa)
#
#
# Indices 1 2 3 4 5 6 
#
# 1 0.027422 0.005956 0.014884 0.000000 0.000000 0.000000
# 2 0.005956 0.027422 0.014884 0.000000 0.000000 0.000000
# 3 0.014884 0.014884 0.052931 0.000000 0.000000 0.000000
# 4 0.000000 0.000000 0.000000 0.052735 0.000000 0.000000
# 5 0.000000 0.000000 0.000000 0.000000 0.052735 0.000000
# 6 0.000000 0.000000 0.000000 0.000000 0.000000 0.128034
#
#
# Mechanical properties :
#
#
# Convention : Reuss Voigt Hill
#
# Bulk Modulus (GPa) = 5.57966 6.69040 6.13503
# Shear Modulus (GPa) = 15.17109 18.31876 16.74493
#
# Velocity S-wave (km/s) = 2.71451 2.98285 2.85184
# Velocity P-wave (km/s) = 3.54045 3.88751 3.71803
#
# Compressibility (1/GPa) = 0.17922247
#
# Stress axis : x y z
#
# Youngs Moduli (GPa) = 36.46646 36.46646 18.89268
#
# Poissons Ratio (x) = -0.21720 -0.28119
# Poissons Ratio (y) = -0.21720 -0.28119
# Poissons Ratio (z) = -0.54275 -0.54275
#
# Static dielectric constant tensor:
#      x y z
#    x 1.775230 0.000000 0.000000 
#    y 0.000000 1.775230 0.000000 
#    z 0.000000 0.000000 1.704000 
# 
# From -- ./inp_files/911.got.cif
#   From: 2010.05.17/outbox.cif.g08.bks.cpg/sg114_1_cif.got.tgz:911.got - 2010.05.20 11:04:54.
