data_PCOD9555924
_publ_section_title
;
Structure prediction by ZEFSAII (Michael W. Deem and Ramdas Pophale) SiO2 
 PCOD9555924
Probable space group: P -4 21 C
;
_chemical_formula_sum "Si O2"
_cell_formula_units_Z 40
_cell_length_a 8.422569
_cell_length_b 8.422569
_cell_length_c 27.079983
_cell_angle_alpha 90.000000
_cell_angle_beta 90.000000
_cell_angle_gamma 90.000000
_cell_volume 1921.045019
_symmetry_space_group_name_H-M "P -4 21 C"
_symmetry_group_IT_number 114
_symmetry_cell_setting 'tetragonal'
loop_
_space_group_symop_operation_xyz
x,y,z
y,-x,-z
-x,-y,z
-y,x,-z
1/2+x,1/2-y,1/2-z
1/2-x,1/2+y,1/2-z
1/2-y,1/2-x,1/2+z
1/2+y,1/2+x,1/2+z
loop_
_atom_site_type_symbol
_atom_site_label
_atom_site_fract_x
_atom_site_fract_y
_atom_site_fract_z
Si Si1 0.000000 0.000000 0.500000
Si Si2 0.246573 0.989095 0.915831
Si Si3 0.760712 0.589946 0.221756
Si Si4 0.418316 0.254476 0.305068
Si Si5 0.000000 0.000000 0.346681
Si Si6 0.485535 0.250864 0.922861
Si Si7 0.500000 0.500000 0.500000
O O1 0.948789 0.853777 0.532933
O O2 0.369973 0.850767 0.901465
O O3 0.128784 0.939157 0.959599
O O4 0.196413 0.059527 0.862462
O O5 0.351782 0.129823 0.939026
O O6 0.683329 0.615098 0.275545
O O7 0.828705 0.415422 0.206451
O O8 0.607145 0.613666 0.186635
O O9 0.904183 0.714047 0.214576
O O10 0.124965 0.082512 0.383273
#
# Coordination Sequence:
#
# PCOD9555924 Si02
#       7
#     2   8   8   8   4   8   2
#     4  10  20  32  64 102 104 164 216 290 300 394
#     4  11  22  45  60  95 125 181 204 276 329 405
#     4  11  22  39  65  99 130 177 220 269 330 396
#     4  11  23  41  65  94 136 176 222 272 332 396
#     4  11  18  36  64  94 110 174 206 263 312 396
#     4  10  20  38  66  84 130 157 224 255 335 384
#     4  12  28  38  72  90 136 162 224 264 348 386
#
# _framework density 20.821999000000002
#
# number of rings (size 3 to 8) (size 9 to 14) (size 15 to 20)
#    0.000    1.200    4.000    3.600    0.000    2.400 
#    0.000    0.000    0.000    0.000    0.000    0.000 
#    0.000    0.000    0.000    0.000    0.000    0.000 
#
# Total GULP energy -222721.041971 kJ/mol
# GULP energy per Si atom -5568.026049 kJ/mol
# Density = 2.077461 g / cm^3
# Si number density = 20.821999 Si / 1000 Ang^3
#
#
#
# Elastic Constant Matrix: (Units=GPa)
#
#
# Indices 1 2 3 4 5 6 
#
# 1 66.9305 13.9491 25.8552 0.0000 0.0000 0.0000
# 2 13.9491 66.9305 25.8552 0.0000 0.0000 0.0000
# 3 25.8552 25.8552 121.2855 0.0000 0.0000 0.0000
# 4 0.0000 0.0000 0.0000 31.0737 0.0000 0.0000
# 5 0.0000 0.0000 0.0000 0.0000 31.0737 0.0000
# 6 0.0000 0.0000 0.0000 0.0000 0.0000 19.9642
#
#
#
# Elastic Compliance Matrix: (Units=1/GPa)
#
#
# Indices 1 2 3 4 5 6 
#
# 1 0.016595 -0.002280 -0.003052 0.000000 0.000000 0.000000
# 2 -0.002280 0.016595 -0.003052 0.000000 0.000000 0.000000
# 3 -0.003052 -0.003052 0.009546 0.000000 0.000000 0.000000
# 4 0.000000 0.000000 0.000000 0.032182 0.000000 0.000000
# 5 0.000000 0.000000 0.000000 0.000000 0.032182 0.000000
# 6 0.000000 0.000000 0.000000 0.000000 0.000000 0.050090
#
#
# Mechanical properties :
#
#
# Convention : Reuss Voigt Hill
#
# Bulk Modulus (GPa) = 38.50633 42.94062 40.72347
# Shear Modulus (GPa) = 27.38059 29.05478 28.21769
#
# Velocity S-wave (km/s) = 3.63020 3.73954 3.68528
# Velocity P-wave (km/s) = 6.00870 6.27001 6.14074
#
# Compressibility (1/GPa) = 0.02596976
#
# Stress axis : x y z
#
# Youngs Moduli (GPa) = 60.25967 60.25967 104.75488
#
# Poissons Ratio (x) = 0.13737 0.31968
# Poissons Ratio (y) = 0.13737 0.31968
# Poissons Ratio (z) = 0.18389 0.18389
#
# Static dielectric constant tensor:
#      x y z
#    x 1.771280 0.000000 0.000000 
#    y 0.000000 1.771280 0.000000 
#    z 0.000000 0.000000 1.794330 
# 
# From -- ./inp_files/3699.got.cif
#   From: 2010.05.17/outbox.cif.g08.bks.cpg/sg114_2_cif.got.tgz:3699.got - 2010.05.20 11:04:54.
