data_PCOD9555961
_publ_section_title
;
Structure prediction by ZEFSAII (Michael W. Deem and Ramdas Pophale) SiO2 
 PCOD9555961
Probable space group: P -4 21 C
;
_chemical_formula_sum "Si O2"
_cell_formula_units_Z 40
_cell_length_a 8.344394
_cell_length_b 8.344394
_cell_length_c 24.908286
_cell_angle_alpha 90.000000
_cell_angle_beta 90.000000
_cell_angle_gamma 90.000000
_cell_volume 1734.336835
_symmetry_space_group_name_H-M "P -4 21 C"
_symmetry_group_IT_number 114
_symmetry_cell_setting 'tetragonal'
loop_
_space_group_symop_operation_xyz
x,y,z
y,-x,-z
-x,-y,z
-y,x,-z
1/2+x,1/2-y,1/2-z
1/2-x,1/2+y,1/2-z
1/2-y,1/2-x,1/2+z
1/2+y,1/2+x,1/2+z
loop_
_atom_site_type_symbol
_atom_site_label
_atom_site_fract_x
_atom_site_fract_y
_atom_site_fract_z
Si Si1 0.309013 0.624511 0.471611
Si Si2 0.686330 0.482042 0.924822
Si Si3 0.244353 0.889716 0.120628
Si Si4 0.306800 0.507093 0.707012
Si Si5 0.817969 0.351910 0.815504
O O1 0.476976 0.709356 0.486196
O O2 0.151461 0.732041 0.463111
O O3 0.328783 0.530930 0.415416
O O4 0.500000 0.500000 0.936698
O O5 0.786790 0.647187 0.920193
O O6 0.713174 0.423788 0.863593
O O7 0.123735 0.786861 0.155986
O O8 0.339624 0.997142 0.164472
O O9 0.500000 0.500000 0.717933
O O10 0.213585 0.564002 0.759233
O O11 0.258617 0.329045 0.692506
#
# Coordination Sequence:
#
# PCOD9555961 Si02
#       5
#     8   8   8   8   8
#     4  10  23  43  81 103 139 190 251 297 371 435
#     4  11  24  47  70 107 151 188 236 311 375 443
#     4  10  23  45  70 104 146 190 245 304 369 442
#     4  10  21  36  65 103 144 191 249 297 364 435
#     4  10  20  36  67  98 146 194 241 297 362 438
#
# _framework density 23.063568
#
# number of rings (size 3 to 8) (size 9 to 14) (size 15 to 20)
#    0.000    1.800    0.000    4.200   14.000    3.200 
#    7.200    5.000    0.000    0.000    0.000    0.000 
#    0.000    0.000    0.000    0.000    0.000    0.000 
#
# Total GULP energy -223577.735179 kJ/mol
# GULP energy per Si atom -5589.443379 kJ/mol
# Density = 2.301107 g / cm^3
# Si number density = 23.063568 Si / 1000 Ang^3
#
#
#
# Elastic Constant Matrix: (Units=GPa)
#
#
# Indices 1 2 3 4 5 6 
#
# 1 107.2990 43.1318 26.1253 0.0000 0.0000 0.0000
# 2 43.1318 107.2990 26.1253 0.0000 0.0000 0.0000
# 3 26.1253 26.1253 96.4697 0.0000 0.0000 0.0000
# 4 0.0000 0.0000 0.0000 49.5568 0.0000 0.0000
# 5 0.0000 0.0000 0.0000 0.0000 49.5568 0.0000
# 6 0.0000 0.0000 0.0000 0.0000 0.0000 39.0910
#
#
#
# Elastic Compliance Matrix: (Units=1/GPa)
#
#
# Indices 1 2 3 4 5 6 
#
# 1 0.011461 -0.004123 -0.001987 0.000000 0.000000 0.000000
# 2 -0.004123 0.011461 -0.001987 0.000000 0.000000 0.000000
# 3 -0.001987 -0.001987 0.011442 0.000000 0.000000 0.000000
# 4 0.000000 0.000000 0.000000 0.020179 0.000000 0.000000
# 5 0.000000 0.000000 0.000000 0.000000 0.020179 0.000000
# 6 0.000000 0.000000 0.000000 0.000000 0.000000 0.025581
#
#
# Mechanical properties :
#
#
# Convention : Reuss Voigt Hill
#
# Bulk Modulus (GPa) = 55.03832 55.75915 55.39874
# Shear Modulus (GPa) = 40.79803 42.01996 41.40899
#
# Velocity S-wave (km/s) = 4.21044 4.27303 4.24185
# Velocity P-wave (km/s) = 6.89584 6.96949 6.93276
#
# Compressibility (1/GPa) = 0.01816916
#
# Stress axis : x y z
#
# Youngs Moduli (GPa) = 87.25207 87.25207 87.39539
#
# Poissons Ratio (x) = 0.35976 0.17367
# Poissons Ratio (y) = 0.35976 0.17367
# Poissons Ratio (z) = 0.17339 0.17339
#
# Static dielectric constant tensor:
#      x y z
#    x 1.906520 0.000000 0.000000 
#    y 0.000000 1.906520 0.000000 
#    z 0.000000 0.000000 1.879100 
# 
# From -- ./inp_files/3646.got.cif
#   From: 2010.05.17/outbox.cif.g08.bks.cpg/sg114_2_cif.got.tgz:3646.got - 2010.05.20 11:04:54.
