data_PCOD9555231
_publ_section_title
;
Structure prediction by ZEFSAII (Michael W. Deem and Ramdas Pophale) SiO2 
 PCOD9555231
Probable space group: P -4 2 C
;
_chemical_formula_sum "Si O2"
_cell_formula_units_Z 40
_cell_length_a 9.195425
_cell_length_b 9.195425
_cell_length_c 20.729321
_cell_angle_alpha 90.000000
_cell_angle_beta 90.000000
_cell_angle_gamma 90.000000
_cell_volume 1752.785169
_symmetry_space_group_name_H-M "P -4 2 C"
_symmetry_group_IT_number 112
_symmetry_cell_setting 'tetragonal'
loop_
_space_group_symop_operation_xyz
x,y,z
y,-x,-z
-x,-y,z
-y,x,-z
x,-y,1/2-z
-x,y,1/2-z
-y,-x,1/2+z
y,x,1/2+z
loop_
_atom_site_type_symbol
_atom_site_label
_atom_site_fract_x
_atom_site_fract_y
_atom_site_fract_z
Si Si1 0.224815 0.096731 0.505108
Si Si2 0.169414 0.161214 0.761080
Si Si3 0.398930 0.671904 0.311612
Si Si4 0.835091 0.535924 0.109641
Si Si5 0.261480 0.324424 0.892148
O O1 0.318295 0.148836 0.566912
O O2 0.322775 0.133122 0.443411
O O3 0.072244 0.180941 0.495728
O O4 0.205298 0.286893 0.709745
O O5 0.214960 0.225563 0.830506
O O6 0.000000 0.143110 0.750000
O O7 0.236728 0.000000 0.750000
O O8 0.500000 0.645299 0.250000
O O9 0.281348 0.552356 0.332648
O O10 0.512998 0.703471 0.368228
O O11 0.757008 0.399638 0.075051
O O12 0.000000 0.500000 0.129091
#
# Coordination Sequence:
#
# PCOD9555231 Si02
#       5
#     8   8   8   8   8
#     4  11  27  48  75 106 145 197 250 310 370 444
#     4  10  23  43  73 108 145 192 248 309 379 445
#     4  10  25  46  72 106 149 194 240 307 374 454
#     4  12  25  47  72 107 144 197 251 309 380 453
#     4  11  25  45  70 107 147 191 243 304 381 453
#
# _framework density 22.820823000000001
#
# number of rings (size 3 to 8) (size 9 to 14) (size 15 to 20)
#    0.000    1.200    2.000    1.800    5.600   10.800 
#    0.000    5.000    0.000    0.000    0.000    0.000 
#    0.000    0.000    0.000    0.000    0.000    0.000 
#
# Total GULP energy -223242.312363 kJ/mol
# GULP energy per Si atom -5581.057809 kJ/mol
# Density = 2.276888 g / cm^3
# Si number density = 22.820823 Si / 1000 Ang^3
#
#
#
# Elastic Constant Matrix: (Units=GPa)
#
#
# Indices 1 2 3 4 5 6 
#
# 1 141.8469 50.4312 37.7128 0.0000 0.0000 0.0000
# 2 50.4312 141.8469 37.7128 0.0000 0.0000 0.0000
# 3 37.7128 37.7128 63.2942 0.0000 0.0000 0.0000
# 4 0.0000 0.0000 0.0000 30.9238 0.0000 0.0000
# 5 0.0000 0.0000 0.0000 0.0000 30.9238 0.0000
# 6 0.0000 0.0000 0.0000 0.0000 0.0000 23.6072
#
#
#
# Elastic Compliance Matrix: (Units=1/GPa)
#
#
# Indices 1 2 3 4 5 6 
#
# 1 0.008863 -0.002076 -0.004044 0.000000 0.000000 0.000000
# 2 -0.002076 0.008863 -0.004044 0.000000 0.000000 0.000000
# 3 -0.004044 -0.004044 0.020618 0.000000 0.000000 0.000000
# 4 0.000000 0.000000 0.000000 0.032338 0.000000 0.000000
# 5 0.000000 0.000000 0.000000 0.000000 0.032338 0.000000
# 6 0.000000 0.000000 0.000000 0.000000 0.000000 0.042360
#
#
# Mechanical properties :
#
#
# Convention : Reuss Voigt Hill
#
# Bulk Modulus (GPa) = 55.50432 66.52238 61.01335
# Shear Modulus (GPa) = 29.11832 31.83303 30.47568
#
# Velocity S-wave (km/s) = 3.57593 3.73890 3.65832
# Velocity P-wave (km/s) = 6.43617 6.91754 6.68119
#
# Compressibility (1/GPa) = 0.01801661
#
# Stress axis : x y z
#
# Youngs Moduli (GPa) = 112.82740 112.82740 48.50050
#
# Poissons Ratio (x) = 0.23422 0.19614
# Poissons Ratio (y) = 0.23422 0.19614
# Poissons Ratio (z) = 0.45628 0.45628
#
# Static dielectric constant tensor:
#      x y z
#    x 1.792660 0.000000 0.000000 
#    y 0.000000 1.792660 0.000000 
#    z 0.000000 0.000000 1.926220 
# 
# From -- ./inp_files/5360.got.cif
#   From: 2010.05.17/outbox.cif.g08.bks.cpg/sg112_3_cif.got.tgz:5360.got - 2010.05.20 10:59:04.
