data_PCOD9555705
_publ_section_title
;
Structure prediction by ZEFSAII (Michael W. Deem and Ramdas Pophale) SiO2 
 PCOD9555705
Probable space group: P -4 21 M 
;
_chemical_formula_sum "Si O2"
_cell_formula_units_Z 58
_cell_length_a 17.561231
_cell_length_b 17.561231
_cell_length_c 8.079633
_cell_angle_alpha 90.000000
_cell_angle_beta 90.000000
_cell_angle_gamma 90.000000
_cell_volume 2491.733239
_symmetry_space_group_name_H-M "P -4 21 M "
_symmetry_group_IT_number 113
_symmetry_cell_setting 'tetragonal'
loop_
_space_group_symop_operation_xyz
x,y,z
y,-x,-z
-x,-y,z
-y,x,-z
1/2+x,1/2-y,-z
1/2-x,1/2+y,-z
1/2-y,1/2-x,z
1/2+y,1/2+x,z
loop_
_atom_site_type_symbol
_atom_site_label
_atom_site_fract_x
_atom_site_fract_y
_atom_site_fract_z
Si Si1 0.412700 0.743645 0.661523
Si Si2 0.231878 0.143816 0.871651
Si Si3 0.119153 0.015522 0.501298
Si Si4 0.522671 0.833704 0.200159
Si Si5 0.699092 0.381095 0.773738
Si Si6 0.123201 0.256685 0.717011
Si Si7 0.356356 0.026272 0.811462
Si Si8 0.500000 0.000000 0.330830
O O1 0.478862 0.679596 0.628229
O O2 0.341743 0.700793 0.747942
O O3 0.386588 0.763590 0.477798
O O4 0.449036 0.818566 0.745142
O O5 0.287064 0.212937 0.933517
O O6 0.168563 0.180681 0.757620
O O7 0.289965 0.088135 0.780611
O O8 0.193543 0.104485 0.029481
O O9 0.157731 0.064004 0.356469
O O10 0.055518 0.071980 0.574361
O O11 0.598399 0.788213 0.252299
O O12 0.523390 0.862812 0.011022
O O13 0.458356 0.768847 0.204580
O O14 0.501519 0.905373 0.313052
O O15 0.174956 0.325045 0.782246
O O16 0.435690 0.064311 0.747811
#
# Coordination Sequence:
#
# PCOD9555705 Si02
#       8
#     8   8   8   8   8   8   8   2
#     4  11  23  39  64  99 136 184 224 287 357 424
#     4   9  21  39  65  91 129 172 228 288 340 408
#     4   9  19  36  60  91 133 182 222 272 352 431
#     4  11  22  43  69  93 128 177 237 291 350 426
#     4  10  21  39  65  97 128 171 232 289 337 418
#     4  11  23  41  61  94 133 175 225 286 351 421
#     4  10  22  42  63  98 133 181 234 289 349 418
#     4  12  24  44  72  94 124 184 238 286 360 418
#
# _framework density 23.276972000000001
#
# number of rings (size 3 to 8) (size 9 to 14) (size 15 to 20)
#    0.000    1.793    2.759    0.828    4.828    0.552 
#    2.483    0.690    0.000    0.000    0.000    0.000 
#    0.000    0.000    0.000    0.000    0.000    0.000 
#
# Total GULP energy -323047.474461 kJ/mol
# GULP energy per Si atom -5569.784042 kJ/mol
# Density = 2.322399 g / cm^3
# Si number density = 23.276972 Si / 1000 Ang^3
#
#
#
# Elastic Constant Matrix: (Units=GPa)
#
#
# Indices 1 2 3 4 5 6 
#
# 1 61.1543 95.8533 22.9249 0.0000 0.0000 0.0000
# 2 95.8533 61.1535 22.9264 0.0000 0.0000 0.0000
# 3 22.9249 22.9264 34.5643 0.0000 0.0000 0.0000
# 4 0.0000 0.0000 0.0000 -13.7360 0.0000 0.0000
# 5 0.0000 0.0000 0.0000 0.0000 -13.7345 0.0000
# 6 0.0000 0.0000 0.0000 0.0000 0.0000 79.7083
#
#
#
# Elastic Compliance Matrix: (Units=1/GPa)
#
#
# Indices 1 2 3 4 5 6 
#
# 1 -0.010460 0.018359 -0.005240 0.000000 0.000000 0.000000
# 2 0.018359 -0.010460 -0.005239 0.000000 0.000000 0.000000
# 3 -0.005240 -0.005239 0.035882 0.000000 0.000000 0.000000
# 4 0.000000 0.000000 0.000000 -0.072801 0.000000 0.000000
# 5 0.000000 0.000000 0.000000 0.000000 -0.072809 0.000000
# 6 0.000000 0.000000 0.000000 0.000000 0.000000 0.012546
#
#
# Mechanical properties :
#
#
# Convention : Reuss Voigt Hill
#
# Bulk Modulus (GPa) = 32.54903 48.92017 40.73460
# Shear Modulus (GPa) = -40.44576 11.45871 -14.49352
#
# Velocity S-wave (km/s) = -4.17296 2.22114 -2.49801
# Velocity P-wave (km/s) = 3.03388 5.25739 3.03609
#
# Compressibility (1/GPa) = 0.03072289
#
# Stress axis : x y z
#
# Youngs Moduli (GPa) = -95.60645 -95.60071 27.86919
#
# Poissons Ratio (x) = 1.75514 0.14604
# Poissons Ratio (y) = 1.75524 0.14599
# Poissons Ratio (z) = -0.50100 -0.50081
#
# Static dielectric constant tensor:
#      x y z
#    x 1.935330 0.000000 0.000000 
#    y 0.000000 1.935330 0.000000 
#    z 0.000000 0.000000 1.854140 
# 
# From -- ./inp_files/1298.got.cif
#   From: 2010.05.17/outbox.cif.g08.bks.cpg/sg113_cif.got.tgz:1298.got - 2010.05.20 11:03:00.
