data_PCOD9555393
_publ_section_title
;
Structure prediction by ZEFSAII (Michael W. Deem and Ramdas Pophale) SiO2 
 PCOD9555393
Probable space group: P -4 2 C
;
_chemical_formula_sum "Si O2"
_cell_formula_units_Z 18
_cell_length_a 9.371366
_cell_length_b 9.371366
_cell_length_c 7.744452
_cell_angle_alpha 90.000000
_cell_angle_beta 90.000000
_cell_angle_gamma 90.000000
_cell_volume 680.137141
_symmetry_space_group_name_H-M "P -4 2 C"
_symmetry_group_IT_number 112
_symmetry_cell_setting 'tetragonal'
loop_
_space_group_symop_operation_xyz
x,y,z
y,-x,-z
-x,-y,z
-y,x,-z
x,-y,1/2-z
-x,y,1/2-z
-y,-x,1/2+z
y,x,1/2+z
loop_
_atom_site_type_symbol
_atom_site_label
_atom_site_fract_x
_atom_site_fract_y
_atom_site_fract_z
Si Si1 0.040758 0.341773 0.471974
Si Si2 0.500000 0.500000 0.750000
Si Si3 0.235975 0.704479 0.693888
O O1 0.104492 0.712753 0.558734
O O2 0.131764 0.282141 0.313475
O O3 0.159665 0.343083 0.629111
O O4 0.000000 0.500000 0.434225
O O5 0.380392 0.608450 0.664023
#
# Coordination Sequence:
#
# PCOD9555393 Si02
#       3
#     8   2   8
#     4  11  25  51  72 118 164 208 270 350 399 502
#     4  12  24  48  82 130 148 222 276 342 412 502
#     4  11  26  46  80 110 165 210 274 337 417 485
#
# _framework density 26.465252
#
# number of rings (size 3 to 8) (size 9 to 14) (size 15 to 20)
#    0.000    0.889    4.444    1.333    6.222    4.444 
#    0.000    4.444    0.000    0.000    0.000    0.000 
#    0.000    0.000    0.000    0.000    0.000    0.000 
#
# Total GULP energy -100389.575261 kJ/mol
# GULP energy per Si atom -5577.198626 kJ/mol
# Density = 2.640502 g / cm^3
# Si number density = 26.465252 Si / 1000 Ang^3
#
#
#
# Elastic Constant Matrix: (Units=GPa)
#
#
# Indices 1 2 3 4 5 6 
#
# 1 237.8715 96.8855 34.6795 0.0000 0.0000 0.0000
# 2 96.8855 237.8715 34.6795 0.0000 0.0000 0.0000
# 3 34.6795 34.6795 133.9309 0.0000 0.0000 0.0000
# 4 0.0000 0.0000 0.0000 70.8924 0.0000 0.0000
# 5 0.0000 0.0000 0.0000 0.0000 70.8924 0.0000
# 6 0.0000 0.0000 0.0000 0.0000 0.0000 73.3408
#
#
#
# Elastic Compliance Matrix: (Units=1/GPa)
#
#
# Indices 1 2 3 4 5 6 
#
# 1 0.005125 -0.001968 -0.000817 0.000000 0.000000 0.000000
# 2 -0.001968 0.005125 -0.000817 0.000000 0.000000 0.000000
# 3 -0.000817 -0.000817 0.007890 0.000000 0.000000 0.000000
# 4 0.000000 0.000000 0.000000 0.014106 0.000000 0.000000
# 5 0.000000 0.000000 0.000000 0.000000 0.014106 0.000000
# 6 0.000000 0.000000 0.000000 0.000000 0.000000 0.013635
#
#
# Mechanical properties :
#
#
# Convention : Reuss Voigt Hill
#
# Bulk Modulus (GPa) = 91.46129 104.68476 98.07302
# Shear Modulus (GPa) = 70.58527 72.58709 71.58618
#
# Velocity S-wave (km/s) = 5.16999 5.24279 5.20652
# Velocity P-wave (km/s) = 8.38287 8.73445 8.56046
#
# Compressibility (1/GPa) = 0.01093359
#
# Stress axis : x y z
#
# Youngs Moduli (GPa) = 195.13158 195.13158 126.74553
#
# Poissons Ratio (x) = 0.38405 0.10360
# Poissons Ratio (y) = 0.38405 0.10360
# Poissons Ratio (z) = 0.15949 0.15949
#
# Static dielectric constant tensor:
#      x y z
#    x 1.748310 0.000000 0.000000 
#    y 0.000000 1.748310 0.000000 
#    z 0.000000 0.000000 2.276550 
# 
# From -- ./inp_files/662.got.cif
#   From: 2010.05.17/outbox.cif.g08.bks.cpg/sg112_1_cif.got.tgz:662.got - 2010.05.20 10:59:04.
