data_PCOD9555908
_publ_section_title
;
Structure prediction by ZEFSAII (Michael W. Deem and Ramdas Pophale) SiO2 
 PCOD9555908
Probable space group: P -4 21 C
;
_chemical_formula_sum "Si O2"
_cell_formula_units_Z 56
_cell_length_a 11.993621
_cell_length_b 11.993621
_cell_length_c 18.756122
_cell_angle_alpha 90.000000
_cell_angle_beta 90.000000
_cell_angle_gamma 90.000000
_cell_volume 2698.010844
_symmetry_space_group_name_H-M "P -4 21 C"
_symmetry_group_IT_number 114
_symmetry_cell_setting 'tetragonal'
loop_
_space_group_symop_operation_xyz
x,y,z
y,-x,-z
-x,-y,z
-y,x,-z
1/2+x,1/2-y,1/2-z
1/2-x,1/2+y,1/2-z
1/2-y,1/2-x,1/2+z
1/2+y,1/2+x,1/2+z
loop_
_atom_site_type_symbol
_atom_site_label
_atom_site_fract_x
_atom_site_fract_y
_atom_site_fract_z
Si Si1 0.388513 0.944526 0.979964
Si Si2 0.835430 0.553645 0.256023
Si Si3 0.569384 0.256253 0.897769
Si Si4 0.190829 0.350701 0.891911
Si Si5 0.129661 0.027628 0.660716
Si Si6 0.661283 0.831335 0.429634
Si Si7 0.673295 0.928619 0.767563
O O1 0.355723 0.843541 0.928485
O O2 0.500000 0.000000 0.946445
O O3 0.314915 0.054891 0.980283
O O4 0.415941 0.893881 0.056948
O O5 0.757988 0.555583 0.187166
O O6 0.802930 0.623467 0.324942
O O7 0.858047 0.423594 0.272354
O O8 0.948938 0.617344 0.232335
O O9 0.618380 0.379648 0.902001
O O10 0.449564 0.228142 0.933440
O O11 0.297261 0.423108 0.867605
O O12 0.235614 0.250343 0.938883
O O13 0.210085 0.068922 0.725422
O O14 0.000000 0.000000 0.679557
O O15 0.616421 0.821929 0.347955
#
# Coordination Sequence:
#
# PCOD9555908 Si02
#       7
#     8   8   8   8   8   8   8
#     4  10  23  39  62  84 117 163 212 242 293 375
#     4   9  18  35  61  93 113 158 212 250 294 354
#     4  10  19  38  60  86 121 161 200 243 310 380
#     4  11  23  37  62  93 127 155 201 262 304 365
#     4  11  22  37  57  96 133 151 188 254 333 367
#     4  10  19  40  63  85 116 165 205 250 300 361
#     4   9  18  34  65  88 120 157 205 255 292 364
#
# _framework density 20.756031
#
# number of rings (size 3 to 8) (size 9 to 14) (size 15 to 20)
#    0.000    2.000    2.857    0.857    4.000    2.286 
#    0.000    0.000    3.143    0.000    0.000    0.000 
#    0.000    0.000    0.000    0.000    0.000    0.000 
#
# Total GULP energy -311863.859554 kJ/mol
# GULP energy per Si atom -5568.997492 kJ/mol
# Density = 2.070879 g / cm^3
# Si number density = 20.756031 Si / 1000 Ang^3
#
#
#
# Elastic Constant Matrix: (Units=GPa)
#
#
# Indices 1 2 3 4 5 6 
#
# 1 81.2782 17.3039 19.3064 0.0000 0.0000 0.0000
# 2 17.3039 81.2782 19.3064 0.0000 0.0000 0.0000
# 3 19.3064 19.3064 55.8420 0.0000 0.0000 0.0000
# 4 0.0000 0.0000 0.0000 15.9131 0.0000 0.0000
# 5 0.0000 0.0000 0.0000 0.0000 15.9131 0.0000
# 6 0.0000 0.0000 0.0000 0.0000 0.0000 19.6613
#
#
#
# Elastic Compliance Matrix: (Units=1/GPa)
#
#
# Indices 1 2 3 4 5 6 
#
# 1 0.013682 -0.001949 -0.004056 0.000000 0.000000 0.000000
# 2 -0.001949 0.013682 -0.004056 0.000000 0.000000 0.000000
# 3 -0.004056 -0.004056 0.020712 0.000000 0.000000 0.000000
# 4 0.000000 0.000000 0.000000 0.062841 0.000000 0.000000
# 5 0.000000 0.000000 0.000000 0.000000 0.062841 0.000000
# 6 0.000000 0.000000 0.000000 0.000000 0.000000 0.050861
#
#
# Mechanical properties :
#
#
# Convention : Reuss Voigt Hill
#
# Bulk Modulus (GPa) = 35.77516 36.69241 36.23379
# Shear Modulus (GPa) = 19.68025 21.12962 20.40493
#
# Velocity S-wave (km/s) = 3.08258 3.19407 3.13882
# Velocity P-wave (km/s) = 5.47203 5.59635 5.53454
#
# Compressibility (1/GPa) = 0.02795235
#
# Stress axis : x y z
#
# Youngs Moduli (GPa) = 73.08906 73.08906 48.28005
#
# Poissons Ratio (x) = 0.14247 0.19584
# Poissons Ratio (y) = 0.14247 0.19584
# Poissons Ratio (z) = 0.29647 0.29647
#
# Static dielectric constant tensor:
#      x y z
#    x 1.819460 0.000000 0.000000 
#    y 0.000000 1.819460 0.000000 
#    z 0.000000 0.000000 1.752230 
# 
# From -- ./inp_files/3171.got.cif
#   From: 2010.05.17/outbox.cif.g08.bks.cpg/sg114_2_cif.got.tgz:3171.got - 2010.05.20 11:04:54.
