data_PCOD9555886
_publ_section_title
;
Structure prediction by ZEFSAII (Michael W. Deem and Ramdas Pophale) SiO2 
 PCOD9555886
Probable space group: P -4 21 C
;
_chemical_formula_sum "Si O2"
_cell_formula_units_Z 48
_cell_length_a 15.011563
_cell_length_b 15.011563
_cell_length_c 8.737444
_cell_angle_alpha 90.000000
_cell_angle_beta 90.000000
_cell_angle_gamma 90.000000
_cell_volume 1968.957000
_symmetry_space_group_name_H-M "P -4 21 C"
_symmetry_group_IT_number 114
_symmetry_cell_setting 'tetragonal'
loop_
_space_group_symop_operation_xyz
x,y,z
y,-x,-z
-x,-y,z
-y,x,-z
1/2+x,1/2-y,1/2-z
1/2-x,1/2+y,1/2-z
1/2-y,1/2-x,1/2+z
1/2+y,1/2+x,1/2+z
loop_
_atom_site_type_symbol
_atom_site_label
_atom_site_fract_x
_atom_site_fract_y
_atom_site_fract_z
Si Si1 0.520366 0.166779 0.804614
Si Si2 0.031685 0.152668 0.185869
Si Si3 0.936153 0.664914 0.369309
Si Si4 0.094062 0.156770 0.842068
Si Si5 0.254622 0.759261 0.999173
Si Si6 0.367246 0.276665 0.768311
O O1 0.579939 0.089403 0.732473
O O2 0.568173 0.263930 0.773825
O O3 0.427406 0.192941 0.725525
O O4 0.503381 0.148355 0.982988
O O5 0.035663 0.249095 0.269815
O O6 0.122725 0.101833 0.235526
O O7 0.942394 0.099254 0.222192
O O8 0.038127 0.163677 0.001203
O O9 0.842927 0.687410 0.457180
O O10 0.193552 0.175222 0.907518
O O11 0.223839 0.770629 0.827327
O O12 0.269909 0.659946 0.055295
#
# Coordination Sequence:
#
# PCOD9555886 Si02
#       6
#     8   8   8   8   8   8
#     4  11  22  36  60  85 113 149 193 243 295 342
#     4  10  21  35  58  87 118 151 190 229 284 346
#     4  10  21  39  58  83 115 156 199 235 279 352
#     4  10  19  35  58  85 116 154 186 233 285 344
#     4   9  18  35  56  79 110 147 194 226 273 348
#     4  10  21  36  58  85 110 149 192 238 288 336
#
# _framework density 24.378391000000001
#
# number of rings (size 3 to 8) (size 9 to 14) (size 15 to 20)
#    0.000    2.000    0.000    7.000    0.000    6.333 
#    0.000    0.000    0.000   14.000    0.000    0.000 
#    0.000    0.000    0.000    0.000    0.000    0.000 
#
# Total GULP energy -267923.951421 kJ/mol
# GULP energy per Si atom -5581.748988 kJ/mol
# Density = 2.432290 g / cm^3
# Si number density = 24.378391 Si / 1000 Ang^3
#
#
#
# Elastic Constant Matrix: (Units=GPa)
#
#
# Indices 1 2 3 4 5 6 
#
# 1 18.0856 2.4725 11.8404 0.0000 0.0000 0.0000
# 2 2.4725 18.0856 11.8404 0.0000 0.0000 0.0000
# 3 11.8404 11.8404 75.2823 0.0000 0.0000 0.0000
# 4 0.0000 0.0000 0.0000 21.1419 0.0000 0.0000
# 5 0.0000 0.0000 0.0000 0.0000 21.1419 0.0000
# 6 0.0000 0.0000 0.0000 0.0000 0.0000 23.6678
#
#
#
# Elastic Compliance Matrix: (Units=1/GPa)
#
#
# Indices 1 2 3 4 5 6 
#
# 1 0.061727 -0.002322 -0.009343 0.000000 0.000000 0.000000
# 2 -0.002322 0.061727 -0.009343 0.000000 0.000000 0.000000
# 3 -0.009343 -0.009343 0.016222 0.000000 0.000000 0.000000
# 4 0.000000 0.000000 0.000000 0.047300 0.000000 0.000000
# 5 0.000000 0.000000 0.000000 0.000000 0.047300 0.000000
# 6 0.000000 0.000000 0.000000 0.000000 0.000000 0.042251
#
#
# Mechanical properties :
#
#
# Convention : Reuss Voigt Hill
#
# Bulk Modulus (GPa) = 10.23968 18.19556 14.21762
# Shear Modulus (GPa) = 14.24112 18.87699 16.55906
#
# Velocity S-wave (km/s) = 2.41958 2.78570 2.60907
# Velocity P-wave (km/s) = 3.46630 4.22219 3.86278
#
# Compressibility (1/GPa) = 0.09765931
#
# Stress axis : x y z
#
# Youngs Moduli (GPa) = 16.20043 16.20043 61.64347
#
# Poissons Ratio (x) = 0.03762 0.57595
# Poissons Ratio (y) = 0.03762 0.57595
# Poissons Ratio (z) = 0.15136 0.15136
#
# Static dielectric constant tensor:
#      x y z
#    x 2.011220 0.000000 0.000000 
#    y 0.000000 2.011220 0.000000 
#    z 0.000000 0.000000 1.972620 
# 
# From -- ./inp_files/917.got.cif
#   From: 2010.05.17/outbox.cif.g08.bks.cpg/sg114_1_cif.got.tgz:917.got - 2010.05.20 11:04:54.
