data_PCOD9555638
_publ_section_title
;
Structure prediction by ZEFSAII (Michael W. Deem and Ramdas Pophale) SiO2 
 PCOD9555638
Probable space group: P -4 21 M 
;
_chemical_formula_sum "Si O2"
_cell_formula_units_Z 56
_cell_length_a 11.506579
_cell_length_b 11.506579
_cell_length_c 20.588411
_cell_angle_alpha 90.000000
_cell_angle_beta 90.000000
_cell_angle_gamma 90.000000
_cell_volume 2725.933622
_symmetry_space_group_name_H-M "P -4 21 M "
_symmetry_group_IT_number 113
_symmetry_cell_setting 'tetragonal'
loop_
_space_group_symop_operation_xyz
x,y,z
y,-x,-z
-x,-y,z
-y,x,-z
1/2+x,1/2-y,-z
1/2-x,1/2+y,-z
1/2-y,1/2-x,z
1/2+y,1/2+x,z
loop_
_atom_site_type_symbol
_atom_site_label
_atom_site_fract_x
_atom_site_fract_y
_atom_site_fract_z
Si Si1 0.961965 0.717091 0.626704
Si Si2 0.189428 0.866243 0.653928
Si Si3 0.048326 0.266671 0.063154
Si Si4 0.755581 0.925780 0.071691
Si Si5 0.199833 0.117431 0.708488
Si Si6 0.684999 0.544903 0.490563
Si Si7 0.340342 0.348789 0.857340
O O1 0.907836 0.592165 0.646315
O O2 0.870604 0.808812 0.655732
O O3 0.963334 0.723066 0.548312
O O4 0.083368 0.773978 0.649890
O O5 0.298435 0.798435 0.681674
O O6 0.215907 0.906886 0.579867
O O7 0.173816 0.983668 0.693700
O O8 0.118178 0.381823 0.085036
O O9 0.144858 0.166670 0.053405
O O10 0.952514 0.214025 0.111593
O O11 0.987285 0.286735 0.994129
O O12 0.648825 0.851176 0.100853
O O13 0.814308 0.022968 0.116534
O O14 0.332519 0.167482 0.705667
O O15 0.153513 0.147201 0.779944
O O16 0.627934 0.418209 0.483616
O O17 0.230248 0.269753 0.876057
#
# Coordination Sequence:
#
# PCOD9555638 Si02
#       7
#     8   8   8   8   8   8   8
#     4  10  20  37  60  85 120 164 208 257 315 376
#     4  11  22  36  59  91 125 161 207 260 319 387
#     4  11  23  39  62  94 131 172 215 264 318 374
#     4  11  23  40  64  96 132 170 217 270 321 378
#     4  10  23  43  64  86 121 166 212 262 314 378
#     4   9  16  31  58  89 118 155 207 259 308 374
#     4  11  24  42  65  95 127 167 218 265 323 391
#
# _framework density 20.543420000000001
#
# number of rings (size 3 to 8) (size 9 to 14) (size 15 to 20)
#    0.000    1.571    2.857    2.143    0.000    5.429 
#    0.000    3.571    0.000    4.286    0.000    0.000 
#    0.000    0.000    0.000    0.000    0.000    0.000 
#
# Total GULP energy -312434.824018 kJ/mol
# GULP energy per Si atom -5579.193286 kJ/mol
# Density = 2.049666 g / cm^3
# Si number density = 20.543420 Si / 1000 Ang^3
#
#
#
# Elastic Constant Matrix: (Units=GPa)
#
#
# Indices 1 2 3 4 5 6 
#
# 1 33.9894 86.8323 14.5040 0.0000 0.0000 0.0000
# 2 86.8323 33.9815 14.5044 0.0000 0.0000 0.0000
# 3 14.5040 14.5044 56.6827 0.0000 0.0000 0.0000
# 4 0.0000 0.0000 0.0000 -5.2729 0.0000 0.0000
# 5 0.0000 0.0000 0.0000 0.0000 -5.2720 0.0000
# 6 0.0000 0.0000 0.0000 0.0000 0.0000 28.7283
#
#
#
# Elastic Compliance Matrix: (Units=1/GPa)
#
#
# Indices 1 2 3 4 5 6 
#
# 1 -0.005051 0.013871 -0.002257 0.000000 0.000000 0.000000
# 2 0.013871 -0.005053 -0.002256 0.000000 0.000000 0.000000
# 3 -0.002257 -0.002256 0.018797 0.000000 0.000000 0.000000
# 4 0.000000 0.000000 0.000000 -0.189651 0.000000 0.000000
# 5 0.000000 0.000000 0.000000 0.000000 -0.189681 0.000000
# 6 0.000000 0.000000 0.000000 0.000000 0.000000 0.034809
#
#
# Mechanical properties :
#
#
# Convention : Reuss Voigt Hill
#
# Bulk Modulus (GPa) = 36.48559 39.59278 38.03919
# Shear Modulus (GPa) = -14.47561 4.22421 -5.12570
#
# Velocity S-wave (km/s) = -2.65738 1.43551 -1.58129
# Velocity P-wave (km/s) = 2.89539 4.69704 3.90163
#
# Compressibility (1/GPa) = 0.02740808
#
# Stress axis : x y z
#
# Youngs Moduli (GPa) = -197.97003 -197.91752 53.20027
#
# Poissons Ratio (x) = 2.74525 0.12006
# Poissons Ratio (y) = 2.74598 0.12004
# Poissons Ratio (z) = -0.44678 -0.44657
#
# Static dielectric constant tensor:
#      x y z
#    x 1.750430 0.000000 0.000000 
#    y 0.000000 1.750430 0.000000 
#    z 0.000000 0.000000 1.698460 
# 
# From -- ./inp_files/2687.got.cif
#   From: 2010.05.17/outbox.cif.g08.bks.cpg/sg113_cif.got.tgz:2687.got - 2010.05.20 11:03:00.
