data_PCOD9555805
_publ_section_title
;
Structure prediction by ZEFSAII (Michael W. Deem and Ramdas Pophale) SiO2 
 PCOD9555805
Probable space group: P -4 21 M 
;
_chemical_formula_sum "Si O2"
_cell_formula_units_Z 56
_cell_length_a 12.000000
_cell_length_b 12.000000
_cell_length_c 21.000000
_cell_angle_alpha 90.000000
_cell_angle_beta 90.000000
_cell_angle_gamma 90.000000
_cell_volume 3024.000000
_symmetry_space_group_name_H-M "P -4 21 M "
_symmetry_group_IT_number 113
_symmetry_cell_setting 'tetragonal'
loop_
_space_group_symop_operation_xyz
x,y,z
y,-x,-z
-x,-y,z
-y,x,-z
1/2+x,1/2-y,-z
1/2-x,1/2+y,-z
1/2-y,1/2-x,z
1/2+y,1/2+x,z
loop_
_atom_site_type_symbol
_atom_site_label
_atom_site_fract_x
_atom_site_fract_y
_atom_site_fract_z
Si Si1 0.346454 0.653547 0.855068
Si Si2 0.004803 0.316280 0.924256
Si Si3 0.154305 0.845696 0.706774
Si Si4 0.000001 0.812785 0.500000
Si Si5 0.316280 0.004802 0.924259
Si Si6 0.685815 0.005234 0.368107
Si Si7 0.505234 0.814185 0.631892
O O1 0.250001 0.750001 0.859570
O O2 0.291351 0.543922 0.887637
O O3 0.368131 0.631872 0.780833
O O4 0.456079 0.708650 0.887639
O O5 0.914124 0.414124 0.912118
O O6 0.124908 0.375093 0.909396
O O7 0.000002 0.293673 0.999999
O O8 0.250000 0.750000 0.703528
O O9 0.211964 0.953982 0.673838
O O10 0.046018 0.788036 0.673839
O O11 0.893824 0.893822 0.489142
O O12 0.979813 0.736902 0.561677
O O13 0.020189 0.736902 0.438324
O O14 0.375093 0.124908 0.909401
O O15 0.414125 0.914125 0.912119
O O16 0.618049 0.118049 0.348283
O O17 0.591682 0.908319 0.369586
O O18 0.408318 0.908318 0.630413
O O19 0.618049 0.881952 0.651717
#
# Coordination Sequence:
#
# PCOD9555805 Si02
#       7
#     8   8   8   8   8   8   8
#     4   9  16  26  46  74 104 144 180 219 276 329
#     4   8  14  25  42  69 103 135 176 228 274 323
#     4   9  18  32  47  73 113 143 182 233 270 329
#     4  11  22  35  54  80 104 135 184 237 286 336
#     4   8  14  25  42  69 103 135 176 228 274 323
#     4  10  20  34  53  77 108 146 183 226 282 335
#     4  10  20  34  53  77 108 146 183 226 282 335
#
# _framework density 18.518519000000001
#
# number of rings (size 3 to 8) (size 9 to 14) (size 15 to 20)
#    0.000    2.714    1.429    1.714    0.000    4.000 
#    0.000    5.714    0.000    0.429    7.429    0.000 
#    0.000    0.000    0.000    0.000    0.000    0.000 
#
# Total GULP energy -311950.862515 kJ/mol
# GULP energy per Si atom -5570.551116 kJ/mol
# Density = 1.847637 g / cm^3
# Si number density = 18.518519 Si / 1000 Ang^3
#
#
#
# Elastic Constant Matrix: (Units=GPa)
#
#
# Indices 1 2 3 4 5 6 
#
# 1 79.2798 46.1790 50.1857 0.0000 0.0000 0.0000
# 2 46.1790 79.2802 50.1856 0.0000 0.0000 0.0000
# 3 50.1857 50.1856 100.0336 0.0000 0.0000 0.0000
# 4 0.0000 0.0000 0.0000 20.9951 0.0000 0.0000
# 5 0.0000 0.0000 0.0000 0.0000 20.9951 0.0000
# 6 0.0000 0.0000 0.0000 0.0000 0.0000 31.0467
#
#
#
# Elastic Compliance Matrix: (Units=1/GPa)
#
#
# Indices 1 2 3 4 5 6 
#
# 1 0.021763 -0.008448 -0.006680 0.000000 0.000000 0.000000
# 2 -0.008448 0.021763 -0.006680 0.000000 0.000000 0.000000
# 3 -0.006680 -0.006680 0.016699 0.000000 0.000000 0.000000
# 4 0.000000 0.000000 0.000000 0.047630 0.000000 0.000000
# 5 0.000000 0.000000 0.000000 0.000000 0.047630 0.000000
# 6 0.000000 0.000000 0.000000 0.000000 0.000000 0.032210
#
#
# Mechanical properties :
#
#
# Convention : Reuss Voigt Hill
#
# Bulk Modulus (GPa) = 60.20757 61.29936 60.75347
# Shear Modulus (GPa) = 21.11074 22.07693 21.59383
#
# Velocity S-wave (km/s) = 3.38002 3.45650 3.41848
# Velocity P-wave (km/s) = 6.91487 7.00738 6.96128
#
# Compressibility (1/GPa) = 0.01660921
#
# Stress axis : x y z
#
# Youngs Moduli (GPa) = 45.94987 45.95029 59.88338
#
# Poissons Ratio (x) = 0.38818 0.40002
# Poissons Ratio (y) = 0.38818 0.40001
# Poissons Ratio (z) = 0.30694 0.30694
#
# Static dielectric constant tensor:
#      x y z
#    x 1.645380 0.000000 0.000000 
#    y 0.000000 1.645380 0.000000 
#    z 0.000000 0.000000 1.623520 
# 
# From -- ./inp_files/2714.got.cif
#   From: 2010.05.17/outbox.ucp.g08.bks.cvg/sg113_cif.got.tgz:2714.got - 2010.06.11 11:33:17.
