data_PCOD9555268
_publ_section_title
;
Structure prediction by ZEFSAII (Michael W. Deem and Ramdas Pophale) SiO2 
 PCOD9555268
Probable space group: P -4 2 C
;
_chemical_formula_sum "Si O2"
_cell_formula_units_Z 40
_cell_length_a 8.372295
_cell_length_b 8.372295
_cell_length_c 28.630891
_cell_angle_alpha 90.000000
_cell_angle_beta 90.000000
_cell_angle_gamma 90.000000
_cell_volume 2006.891569
_symmetry_space_group_name_H-M "P -4 2 C"
_symmetry_group_IT_number 112
_symmetry_cell_setting 'tetragonal'
loop_
_space_group_symop_operation_xyz
x,y,z
y,-x,-z
-x,-y,z
-y,x,-z
x,-y,1/2-z
-x,y,1/2-z
-y,-x,1/2+z
y,x,1/2+z
loop_
_atom_site_type_symbol
_atom_site_label
_atom_site_fract_x
_atom_site_fract_y
_atom_site_fract_z
Si Si1 0.500000 0.500000 0.000000
Si Si2 0.153548 0.101237 0.660412
Si Si3 0.500000 0.000000 0.634940
Si Si4 0.390043 0.304155 0.921988
Si Si5 0.139463 0.215364 0.499803
Si Si6 0.000000 0.000000 0.250000
Si Si7 0.834493 0.590152 0.595200
O O1 0.504186 0.353296 0.965046
O O2 0.171581 0.263348 0.631370
O O3 0.327352 0.018117 0.659409
O O4 0.000000 0.000000 0.640248
O O5 0.102499 0.109479 0.714794
O O6 0.473699 0.834614 0.606646
O O7 0.246847 0.230467 0.951743
O O8 0.312499 0.463050 0.899168
O O9 0.155931 0.339920 0.542259
O O10 0.956197 0.200761 0.484107
O O11 0.000000 0.500000 0.603917
#
# Coordination Sequence:
#
# PCOD9555268 Si02
#       7
#     2   8   4   8   8   2   8
#     4  12  24  36  52  84 140 178 240 280 328 372
#     4  10  24  48  74 106 133 176 230 298 371 460
#     4  12  26  43  74 100 144 188 248 287 358 434
#     4  12  25  38  57  97 138 196 237 286 340 401
#     4  11  24  37  57  89 137 195 248 287 330 401
#     4   8  24  50  82 108 132 168 230 294 392 468
#     4  12  23  39  65 100 143 182 242 303 355 419
#
# _framework density 19.931322000000002
#
# number of rings (size 3 to 8) (size 9 to 14) (size 15 to 20)
#    0.600    0.200    4.000    3.600    7.000    0.400 
#    0.000    0.500    0.000    0.000    5.200    0.000 
#    0.000    0.000    0.000    0.000    0.000    0.000 
#
# Total GULP energy -222892.656614 kJ/mol
# GULP energy per Si atom -5572.316415 kJ/mol
# Density = 1.988596 g / cm^3
# Si number density = 19.931322 Si / 1000 Ang^3
#
#
#
# Elastic Constant Matrix: (Units=GPa)
#
#
# Indices 1 2 3 4 5 6 
#
# 1 114.1427 57.6469 43.8405 0.0000 0.0000 0.0000
# 2 57.6469 114.1427 43.8405 0.0000 0.0000 0.0000
# 3 43.8405 43.8405 87.0973 0.0000 0.0000 0.0000
# 4 0.0000 0.0000 0.0000 7.1440 0.0000 0.0000
# 5 0.0000 0.0000 0.0000 0.0000 7.1440 0.0000
# 6 0.0000 0.0000 0.0000 0.0000 0.0000 42.9327
#
#
#
# Elastic Compliance Matrix: (Units=1/GPa)
#
#
# Indices 1 2 3 4 5 6 
#
# 1 0.012767 -0.004933 -0.003943 0.000000 0.000000 0.000000
# 2 -0.004933 0.012767 -0.003943 0.000000 0.000000 0.000000
# 3 -0.003943 -0.003943 0.015451 0.000000 0.000000 0.000000
# 4 0.000000 0.000000 0.000000 0.139978 0.000000 0.000000
# 5 0.000000 0.000000 0.000000 0.000000 0.139978 0.000000
# 6 0.000000 0.000000 0.000000 0.000000 0.000000 0.023292
#
#
# Mechanical properties :
#
#
# Convention : Reuss Voigt Hill
#
# Bulk Modulus (GPa) = 65.16403 67.33762 66.25082
# Shear Modulus (GPa) = 13.33378 22.78113 18.05745
#
# Velocity S-wave (km/s) = 2.58928 3.38447 3.01322
# Velocity P-wave (km/s) = 6.45790 7.00935 6.73927
#
# Compressibility (1/GPa) = 0.01534589
#
# Stress axis : x y z
#
# Youngs Moduli (GPa) = 78.32687 78.32687 64.72124
#
# Poissons Ratio (x) = 0.38642 0.25520
# Poissons Ratio (y) = 0.38642 0.25520
# Poissons Ratio (z) = 0.30885 0.30885
#
# Static dielectric constant tensor:
#      x y z
#    x 1.813910 0.000000 0.000000 
#    y 0.000000 1.813910 0.000000 
#    z 0.000000 0.000000 1.691030 
# 
# From -- ./inp_files/5885.got.cif
#   From: 2010.05.17/outbox.cif.g08.bks.cpg/sg112_3_cif.got.tgz:5885.got - 2010.05.20 10:59:04.
