data_PCOD9555455
_publ_section_title
;
Structure prediction by ZEFSAII (Michael W. Deem and Ramdas Pophale) SiO2 
 PCOD9555455
Probable space group: P -4 21 M 
;
_chemical_formula_sum "Si O2"
_cell_formula_units_Z 64
_cell_length_a 20.252746
_cell_length_b 20.252746
_cell_length_c 10.178465
_cell_angle_alpha 90.000000
_cell_angle_beta 90.000000
_cell_angle_gamma 90.000000
_cell_volume 4174.938858
_symmetry_space_group_name_H-M "P -4 21 M "
_symmetry_group_IT_number 113
_symmetry_cell_setting 'tetragonal'
loop_
_space_group_symop_operation_xyz
x,y,z
y,-x,-z
-x,-y,z
-y,x,-z
1/2+x,1/2-y,-z
1/2-x,1/2+y,-z
1/2-y,1/2-x,z
1/2+y,1/2+x,z
loop_
_atom_site_type_symbol
_atom_site_label
_atom_site_fract_x
_atom_site_fract_y
_atom_site_fract_z
Si Si1 0.824826 0.435228 0.946758
Si Si2 0.741293 0.354742 0.744737
Si Si3 0.066928 0.323914 0.350446
Si Si4 0.120403 0.266230 0.608007
Si Si5 0.340139 0.273694 0.553277
Si Si6 0.190634 0.579714 0.249719
Si Si7 0.584015 0.196791 0.106418
Si Si8 0.242846 0.852549 0.867618
O O1 0.891708 0.391708 0.935979
O O2 0.775174 0.409657 0.834531
O O3 0.833285 0.513018 0.927528
O O4 0.796885 0.422472 0.093351
O O5 0.794879 0.294879 0.740005
O O6 0.726885 0.370849 0.592874
O O7 0.676557 0.325719 0.816421
O O8 0.106684 0.393317 0.356000
O O9 0.072424 0.288296 0.491034
O O10 0.107432 0.278312 0.248690
O O11 0.992626 0.328778 0.300390
O O12 0.178708 0.321293 0.605848
O O13 0.157662 0.197329 0.581674
O O14 0.086972 0.271848 0.749382
O O15 0.282410 0.217591 0.553817
O O16 0.391123 0.250957 0.665102
O O17 0.129576 0.629576 0.270037
O O18 0.638574 0.138574 0.100409
O O19 0.603904 0.251402 0.997999
O O20 0.288823 0.788823 0.895121
#
# Coordination Sequence:
#
# PCOD9555455 Si02
#       8
#     8   8   8   8   8   8   8   8
#     4  10  21  33  45  67 100 134 164 192 229 283
#     4   9  17  30  48  67  90 122 156 196 247 291
#     4  10  18  32  49  67  93 126 165 199 229 276
#     4   9  18  31  49  69  90 118 158 207 249 279
#     4   9  17  31  48  67  91 120 155 198 249 288
#     4  10  21  32  45  68  99 132 162 196 233 278
#     4  10  20  32  47  70  97 130 166 201 233 271
#     4   9  16  29  49  67  86 118 160 201 241 276
#
# _framework density 15.329566
#
# number of rings (size 3 to 8) (size 9 to 14) (size 15 to 20)
#    0.000    2.500    2.500    0.000    3.500    0.500 
#    0.000    1.250    0.000    2.250    0.000    0.000 
#    0.000    6.000    0.000    0.000    0.000    0.000 
#
# Total GULP energy -356375.343099 kJ/mol
# GULP energy per Si atom -5568.364736 kJ/mol
# Density = 1.529467 g / cm^3
# Si number density = 15.329566 Si / 1000 Ang^3
#
#
#
# Elastic Constant Matrix: (Units=GPa)
#
#
# Indices 1 2 3 4 5 6 
#
# 1 23.5698 26.2500 22.8719 0.0000 0.0000 0.0000
# 2 26.2500 23.5697 22.8726 0.0000 0.0000 0.0000
# 3 22.8719 22.8726 114.4016 0.0000 0.0000 0.0000
# 4 0.0000 0.0000 0.0000 18.8881 0.0000 0.0000
# 5 0.0000 0.0000 0.0000 0.0000 18.8882 0.0000
# 6 0.0000 0.0000 0.0000 0.0000 0.0000 10.4518
#
#
#
# Elastic Compliance Matrix: (Units=1/GPa)
#
#
# Indices 1 2 3 4 5 6 
#
# 1 -0.174255 0.198842 -0.004917 0.000000 0.000000 0.000000
# 2 0.198842 -0.174258 -0.004914 0.000000 0.000000 0.000000
# 3 -0.004917 -0.004914 0.010707 0.000000 0.000000 0.000000
# 4 0.000000 0.000000 0.000000 0.052943 0.000000 0.000000
# 5 0.000000 0.000000 0.000000 0.000000 0.052943 0.000000
# 6 0.000000 0.000000 0.000000 0.000000 0.000000 0.095677
#
#
# Mechanical properties :
#
#
# Convention : Reuss Voigt Hill
#
# Bulk Modulus (GPa) = 24.86548 33.94777 29.40663
# Shear Modulus (GPa) = -9.98283 15.61540 2.81628
#
# Velocity S-wave (km/s) = -2.55466 3.19509 1.35689
# Velocity P-wave (km/s) = 2.74847 5.98371 4.65612
#
# Compressibility (1/GPa) = 0.04021639
#
# Stress axis : x y z
#
# Youngs Moduli (GPa) = -5.73872 -5.73862 93.40028
#
# Poissons Ratio (x) = 1.14108 0.45923
# Poissons Ratio (y) = 1.14110 0.45897
# Poissons Ratio (z) = -0.02822 -0.02820
#
# Static dielectric constant tensor:
#      x y z
#    x 1.494180 0.000000 0.000000 
#    y 0.000000 1.494190 0.000000 
#    z 0.000000 0.000000 1.534830 
# 
# From -- ./inp_files/1400.got.cif
#   From: 2010.05.17/outbox.cif.g08.bks.cpg/sg113_cif.got.tgz:1400.got - 2010.05.20 11:03:00.
