data_PCOD9555346
_publ_section_title
;
Structure prediction by ZEFSAII (Michael W. Deem and Ramdas Pophale) SiO2 
 PCOD9555346
Probable space group: P -4 2 C
;
_chemical_formula_sum "Si O2"
_cell_formula_units_Z 18
_cell_length_a 7.885962
_cell_length_b 7.885962
_cell_length_c 13.013449
_cell_angle_alpha 90.000000
_cell_angle_beta 90.000000
_cell_angle_gamma 90.000000
_cell_volume 809.285528
_symmetry_space_group_name_H-M "P -4 2 C"
_symmetry_group_IT_number 112
_symmetry_cell_setting 'tetragonal'
loop_
_space_group_symop_operation_xyz
x,y,z
y,-x,-z
-x,-y,z
-y,x,-z
x,-y,1/2-z
-x,y,1/2-z
-y,-x,1/2+z
y,x,1/2+z
loop_
_atom_site_type_symbol
_atom_site_label
_atom_site_fract_x
_atom_site_fract_y
_atom_site_fract_z
Si Si1 0.000000 0.000000 0.500000
Si Si2 0.530799 0.296690 0.132682
Si Si3 0.105851 0.345141 0.444802
O O1 0.183080 0.016645 0.551976
O O2 0.500000 0.500000 0.119108
O O3 0.500000 0.249202 0.250000
O O4 0.729874 0.280579 0.113870
O O5 0.423606 0.184550 0.051565
O O6 0.000000 0.500000 0.397748
#
# Coordination Sequence:
#
# PCOD9555346 Si02
#       3
#     2   8   8
#     4  12  24  40  70 104 128 186 236 284 362 428
#     4  11  22  42  71  98 132 189 237 282 355 425
#     4  12  22  44  70  97 146 180 230 301 354 420
#
# _framework density 22.241841000000001
#
# number of rings (size 3 to 8) (size 9 to 14) (size 15 to 20)
#    0.000    0.444    8.889    0.000    0.000    0.889 
#    0.000   17.778    0.000    0.000    0.000    0.000 
#    0.000    0.000    0.000    0.000    0.000    0.000 
#
# Total GULP energy -100453.876925 kJ/mol
# GULP energy per Si atom -5580.770940 kJ/mol
# Density = 2.219122 g / cm^3
# Si number density = 22.241841 Si / 1000 Ang^3
#
#
#
# Elastic Constant Matrix: (Units=GPa)
#
#
# Indices 1 2 3 4 5 6 
#
# 1 126.3331 5.1141 8.5886 0.0000 0.0000 0.0000
# 2 5.1141 126.3331 8.5886 0.0000 0.0000 0.0000
# 3 8.5886 8.5886 106.9452 0.0000 0.0000 0.0000
# 4 0.0000 0.0000 0.0000 6.0796 0.0000 0.0000
# 5 0.0000 0.0000 0.0000 0.0000 6.0796 0.0000
# 6 0.0000 0.0000 0.0000 0.0000 0.0000 53.9904
#
#
#
# Elastic Compliance Matrix: (Units=1/GPa)
#
#
# Indices 1 2 3 4 5 6 
#
# 1 0.007969 -0.000281 -0.000617 0.000000 0.000000 0.000000
# 2 -0.000281 0.007969 -0.000617 0.000000 0.000000 0.000000
# 3 -0.000617 -0.000617 0.009450 0.000000 0.000000 0.000000
# 4 0.000000 0.000000 0.000000 0.164485 0.000000 0.000000
# 5 0.000000 0.000000 0.000000 0.000000 0.164485 0.000000
# 6 0.000000 0.000000 0.000000 0.000000 0.000000 0.018522
#
#
# Mechanical properties :
#
#
# Convention : Reuss Voigt Hill
#
# Bulk Modulus (GPa) = 44.72949 44.91045 44.81997
# Shear Modulus (GPa) = 13.04249 35.71792 24.38020
#
# Velocity S-wave (km/s) = 2.42418 4.01170 3.31439
# Velocity P-wave (km/s) = 5.29053 6.45709 5.90270
#
# Compressibility (1/GPa) = 0.02235661
#
# Stress axis : x y z
#
# Youngs Moduli (GPa) = 125.48755 125.48755 105.82285
#
# Poissons Ratio (x) = 0.03521 0.06534
# Poissons Ratio (y) = 0.03521 0.06534
# Poissons Ratio (z) = 0.07748 0.07748
#
# Static dielectric constant tensor:
#      x y z
#    x 2.032500 0.000000 0.000000 
#    y 0.000000 2.032500 0.000000 
#    z 0.000000 0.000000 1.841010 
# 
# From -- ./inp_files/1791.got.cif
#   From: 2010.05.17/outbox.cif.g08.bks.cpg/sg112_1_cif.got.tgz:1791.got - 2010.05.20 10:59:04.
