data_PCOD9555100
_publ_section_title
;
Structure prediction by ZEFSAII (Michael W. Deem and Ramdas Pophale) SiO2 
 PCOD9555100
Probable space group: P -4 2 C
;
_chemical_formula_sum "Si O2"
_cell_formula_units_Z 44
_cell_length_a 8.070853
_cell_length_b 8.070853
_cell_length_c 28.757451
_cell_angle_alpha 90.000000
_cell_angle_beta 90.000000
_cell_angle_gamma 90.000000
_cell_volume 1873.222057
_symmetry_space_group_name_H-M "P -4 2 C"
_symmetry_group_IT_number 112
_symmetry_cell_setting 'tetragonal'
loop_
_space_group_symop_operation_xyz
x,y,z
y,-x,-z
-x,-y,z
-y,x,-z
x,-y,1/2-z
-x,y,1/2-z
-y,-x,1/2+z
y,x,1/2+z
loop_
_atom_site_type_symbol
_atom_site_label
_atom_site_fract_x
_atom_site_fract_y
_atom_site_fract_z
Si Si1 0.487717 0.231124 0.497499
Si Si2 0.302084 0.506059 0.407521
Si Si3 0.104216 0.677595 0.332864
Si Si4 0.829970 0.213543 0.643040
Si Si5 0.691088 0.298304 0.244911
Si Si6 0.000000 0.500000 0.910036
O O1 0.333735 0.349947 0.489593
O O2 0.446032 0.176707 0.550248
O O3 0.525477 0.141131 0.449617
O O4 0.500000 0.500000 0.417271
O O5 0.258477 0.629335 0.365475
O O6 0.259947 0.326722 0.388590
O O7 0.179992 0.748028 0.285301
O O8 0.000000 0.500000 0.326449
O O9 0.986047 0.815049 0.356019
O O10 0.777998 0.256583 0.695847
O O11 0.967680 0.337910 0.621807
O O12 0.693639 0.500000 0.250000
O O13 0.500000 0.247917 0.250000
#
# Coordination Sequence:
#
# PCOD9555100 Si02
#       6
#     8   8   8   8   8   4
#     4  11  22  41  68  98 131 188 259 319 368 442
#     4  11  19  35  64 103 139 181 248 321 382 445
#     4  10  21  33  62 106 156 183 246 320 394 465
#     4  11  23  38  61 102 153 197 240 307 403 469
#     4  11  20  35  65 106 146 190 246 322 381 458
#     4  12  26  42  69 104 160 199 260 322 406 486
#
# _framework density 23.488942000000002
#
# number of rings (size 3 to 8) (size 9 to 14) (size 15 to 20)
#    0.000    1.091    7.273    1.636    3.818    0.000 
#    0.000    0.455    0.000   16.909    0.000    7.636 
#    0.000    0.000    0.000    0.000    0.000    0.000 
#
# Total GULP energy -245013.257497 kJ/mol
# GULP energy per Si atom -5568.483125 kJ/mol
# Density = 2.343548 g / cm^3
# Si number density = 23.488942 Si / 1000 Ang^3
#
#
#
# Elastic Constant Matrix: (Units=GPa)
#
#
# Indices 1 2 3 4 5 6 
#
# 1 104.9790 20.3342 40.0212 0.0000 0.0000 0.0000
# 2 20.3342 104.9790 40.0212 0.0000 0.0000 0.0000
# 3 40.0212 40.0212 182.6523 0.0000 0.0000 0.0000
# 4 0.0000 0.0000 0.0000 -22.0252 0.0000 0.0000
# 5 0.0000 0.0000 0.0000 0.0000 -22.0252 0.0000
# 6 0.0000 0.0000 0.0000 0.0000 0.0000 27.7823
#
#
#
# Elastic Compliance Matrix: (Units=1/GPa)
#
#
# Indices 1 2 3 4 5 6 
#
# 1 0.010546 -0.001268 -0.002033 0.000000 0.000000 0.000000
# 2 -0.001268 0.010546 -0.002033 0.000000 0.000000 0.000000
# 3 -0.002033 -0.002033 0.006366 0.000000 0.000000 0.000000
# 4 0.000000 0.000000 0.000000 -0.045403 0.000000 0.000000
# 5 0.000000 0.000000 0.000000 0.000000 -0.045403 0.000000
# 6 0.000000 0.000000 0.000000 0.000000 0.000000 0.035994
#
#
# Mechanical properties :
#
#
# Convention : Reuss Voigt Hill
#
# Bulk Modulus (GPa) = 59.55637 65.92925 62.74281
# Shear Modulus (GPa) = -450.94295 16.22863 -217.35716
#
# Velocity S-wave (km/s) = -13.87075 2.63136 -9.63000
# Velocity P-wave (km/s) = 15.20264 6.11238 9.84274
#
# Compressibility (1/GPa) = 0.01679082
#
# Stress axis : x y z
#
# Youngs Moduli (GPa) = 94.81968 94.81968 157.08927
#
# Poissons Ratio (x) = 0.12021 0.31937
# Poissons Ratio (y) = 0.12021 0.31937
# Poissons Ratio (z) = 0.19277 0.19277
#
# Static dielectric constant tensor:
#      x y z
#    x 2.069760 0.000000 0.000000 
#    y 0.000000 2.069760 0.000000 
#    z 0.000000 0.000000 1.955820 
# 
# From -- ./inp_files/6194.got.cif
#   From: 2010.05.17/outbox.cif.g08.bks.cpg/sg112_4_cif.got.tgz:6194.got - 2010.05.20 10:59:04.
