data_PCOD9555201
_publ_section_title
;
Structure prediction by ZEFSAII (Michael W. Deem and Ramdas Pophale) SiO2 
 PCOD9555201
Probable space group: P -4 2 C
;
_chemical_formula_sum "Si O2"
_cell_formula_units_Z 16
_cell_length_a 5.053826
_cell_length_b 5.053826
_cell_length_c 24.845393
_cell_angle_alpha 90.000000
_cell_angle_beta 90.000000
_cell_angle_gamma 90.000000
_cell_volume 634.580089
_symmetry_space_group_name_H-M "P -4 2 C"
_symmetry_group_IT_number 112
_symmetry_cell_setting 'tetragonal'
loop_
_space_group_symop_operation_xyz
x,y,z
y,-x,-z
-x,-y,z
-y,x,-z
x,-y,1/2-z
-x,y,1/2-z
-y,-x,1/2+z
y,x,1/2+z
loop_
_atom_site_type_symbol
_atom_site_label
_atom_site_fract_x
_atom_site_fract_y
_atom_site_fract_z
Si Si1 0.500000 0.500000 0.000000
Si Si2 0.500000 0.500000 0.750000
Si Si3 0.500000 0.000000 0.819254
Si Si4 0.826631 0.763585 0.914646
O O1 0.603571 0.714882 0.958574
O O2 0.375057 0.738045 0.788108
O O3 0.709717 0.858389 0.857840
O O4 0.000000 0.500000 0.908879
O O5 0.000000 0.000000 0.935401
#
# Coordination Sequence:
#
# PCOD9555201 Si02
#       4
#     2   2   4   8
#     4  12  30  44  72 110 152 208 270 328 420 490
#     4  10  22  46  86 108 156 212 266 354 414 492
#     4  11  24  50  74 116 156 206 272 343 424 488
#     4  12  28  47  75 110 159 208 268 341 411 511
#
# _framework density 25.213519000000002
#
# number of rings (size 3 to 8) (size 9 to 14) (size 15 to 20)
#    0.000    0.500    0.000    7.500   10.500    0.000 
#    0.000   18.750    0.000    0.000    0.000    0.000 
#    0.000    0.000    0.000    0.000    0.000    0.000 
#
# Total GULP energy -89256.578068 kJ/mol
# GULP energy per Si atom -5578.536129 kJ/mol
# Density = 2.515613 g / cm^3
# Si number density = 25.213519 Si / 1000 Ang^3
#
#
#
# Elastic Constant Matrix: (Units=GPa)
#
#
# Indices 1 2 3 4 5 6 
#
# 1 170.9705 62.8890 52.4914 0.0000 0.0000 0.0000
# 2 62.8890 170.9705 52.4914 0.0000 0.0000 0.0000
# 3 52.4914 52.4914 126.9408 0.0000 0.0000 0.0000
# 4 0.0000 0.0000 0.0000 -0.2877 0.0000 0.0000
# 5 0.0000 0.0000 0.0000 0.0000 -0.2877 0.0000
# 6 0.0000 0.0000 0.0000 0.0000 0.0000 71.9083
#
#
#
# Elastic Compliance Matrix: (Units=1/GPa)
#
#
# Indices 1 2 3 4 5 6 
#
# 1 0.007252 -0.002001 -0.002171 0.000000 0.000000 0.000000
# 2 -0.002001 0.007252 -0.002171 0.000000 0.000000 0.000000
# 3 -0.002171 -0.002171 0.009673 0.000000 0.000000 0.000000
# 4 0.000000 0.000000 0.000000 -3.476201 0.000000 0.000000
# 5 0.000000 0.000000 0.000000 0.000000 -3.476201 0.000000
# 6 0.000000 0.000000 0.000000 0.000000 0.000000 0.013907
#
#
# Mechanical properties :
#
#
# Convention : Reuss Voigt Hill
#
# Bulk Modulus (GPa) = 87.03291 89.40279 88.21785
# Shear Modulus (GPa) = -0.72487 34.33393 16.80453
#
# Velocity S-wave (km/s) = -0.53676 3.69416 2.58445
# Velocity P-wave (km/s) = 5.84886 7.33015 6.63099
#
# Compressibility (1/GPa) = 0.01148991
#
# Stress axis : x y z
#
# Youngs Moduli (GPa) = 137.90199 137.90199 103.37674
#
# Poissons Ratio (x) = 0.27591 0.22446
# Poissons Ratio (y) = 0.27591 0.22446
# Poissons Ratio (z) = 0.29942 0.29942
#
# Static dielectric constant tensor:
#      x y z
#    x 1.942090 0.000000 0.000000 
#    y 0.000000 1.942090 0.000000 
#    z 0.000000 0.000000 2.100390 
# 
# From -- ./inp_files/5047.got.cif
#   From: 2010.05.17/outbox.cif.g08.bks.cpg/sg112_3_cif.got.tgz:5047.got - 2010.05.20 10:59:04.
