data_PCOD9555990
_publ_section_title
;
Structure prediction by ZEFSAII (Michael W. Deem and Ramdas Pophale) SiO2 
 PCOD9555990
Probable space group: P -4 21 C
;
_chemical_formula_sum "Si O2"
_cell_formula_units_Z 56
_cell_length_a 13.089595
_cell_length_b 13.089595
_cell_length_c 13.510353
_cell_angle_alpha 90.000000
_cell_angle_beta 90.000000
_cell_angle_gamma 90.000000
_cell_volume 2314.830070
_symmetry_space_group_name_H-M "P -4 21 C"
_symmetry_group_IT_number 114
_symmetry_cell_setting 'tetragonal'
loop_
_space_group_symop_operation_xyz
x,y,z
y,-x,-z
-x,-y,z
-y,x,-z
1/2+x,1/2-y,1/2-z
1/2-x,1/2+y,1/2-z
1/2-y,1/2-x,1/2+z
1/2+y,1/2+x,1/2+z
loop_
_atom_site_type_symbol
_atom_site_label
_atom_site_fract_x
_atom_site_fract_y
_atom_site_fract_z
Si Si1 0.789057 0.842519 0.763935
Si Si2 0.654458 0.912322 0.147978
Si Si3 0.296674 0.270262 0.486871
Si Si4 0.159227 0.370549 0.124640
Si Si5 0.846481 0.044753 0.648049
Si Si6 0.207860 0.048297 0.441016
Si Si7 0.626042 0.072823 0.685167
O O1 0.667377 0.830713 0.738506
O O2 0.836574 0.753430 0.695906
O O3 0.832772 0.950024 0.721983
O O4 0.806005 0.834939 0.880575
O O5 0.737205 0.883478 0.065702
O O6 0.533675 0.888614 0.127472
O O7 0.648262 0.032542 0.165695
O O8 0.214820 0.344327 0.539916
O O9 0.241231 0.160839 0.472701
O O10 0.195740 0.479064 0.085275
O O11 0.061206 0.376698 0.195281
O O12 0.938666 0.125153 0.647402
O O13 0.740225 0.106448 0.661578
O O14 0.843753 0.001312 0.537085
#
# Coordination Sequence:
#
# PCOD9555990 Si02
#       7
#     8   8   8   8   8   8   8
#     4  10  21  40  60  94 134 172 215 282 343 404
#     4   9  20  41  61  91 129 170 216 274 342 407
#     4  11  21  40  66  94 134 175 223 279 348 406
#     4  11  23  36  64  98 127 178 219 281 344 396
#     4  11  22  41  64  97 134 171 229 284 342 407
#     4  12  21  40  64  98 133 175 227 285 334 408
#     4  10  20  40  61  92 135 161 220 275 336 415
#
# _framework density 24.191842000000001
#
# number of rings (size 3 to 8) (size 9 to 14) (size 15 to 20)
#    0.000    1.429    5.714    1.714    0.000    3.143 
#    5.143    2.857    0.000    0.000    0.000    6.000 
#    0.000    0.000    0.000    0.000    0.000    0.000 
#
# Total GULP energy -312968.485359 kJ/mol
# GULP energy per Si atom -5588.722953 kJ/mol
# Density = 2.413678 g / cm^3
# Si number density = 24.191842 Si / 1000 Ang^3
#
#
#
# Elastic Constant Matrix: (Units=GPa)
#
#
# Indices 1 2 3 4 5 6 
#
# 1 65.3809 13.2606 27.2743 0.0000 0.0000 0.0000
# 2 13.2606 65.3809 27.2743 0.0000 0.0000 0.0000
# 3 27.2743 27.2743 130.5596 0.0000 0.0000 0.0000
# 4 0.0000 0.0000 0.0000 31.9631 0.0000 0.0000
# 5 0.0000 0.0000 0.0000 0.0000 31.9631 0.0000
# 6 0.0000 0.0000 0.0000 0.0000 0.0000 24.2263
#
#
#
# Elastic Compliance Matrix: (Units=1/GPa)
#
#
# Indices 1 2 3 4 5 6 
#
# 1 0.017029 -0.002158 -0.003107 0.000000 0.000000 0.000000
# 2 -0.002158 0.017029 -0.003107 0.000000 0.000000 0.000000
# 3 -0.003107 -0.003107 0.008957 0.000000 0.000000 0.000000
# 4 0.000000 0.000000 0.000000 0.031286 0.000000 0.000000
# 5 0.000000 0.000000 0.000000 0.000000 0.031286 0.000000
# 6 0.000000 0.000000 0.000000 0.000000 0.000000 0.041277
#
#
# Mechanical properties :
#
#
# Convention : Reuss Voigt Hill
#
# Bulk Modulus (GPa) = 38.06250 44.10442 41.08346
# Shear Modulus (GPa) = 29.00849 30.53132 29.76991
#
# Velocity S-wave (km/s) = 3.46656 3.55639 3.51176
# Velocity P-wave (km/s) = 5.63831 5.92744 5.78468
#
# Compressibility (1/GPa) = 0.02627258
#
# Stress axis : x y z
#
# Youngs Moduli (GPa) = 58.72484 58.72484 111.64115
#
# Poissons Ratio (x) = 0.12672 0.34682
# Poissons Ratio (y) = 0.12672 0.34682
# Poissons Ratio (z) = 0.18243 0.18243
#
# Static dielectric constant tensor:
#      x y z
#    x 1.973240 0.000000 0.000000 
#    y 0.000000 1.973240 0.000000 
#    z 0.000000 0.000000 1.994950 
# 
# From -- ./inp_files/1739.got.cif
#   From: 2010.05.17/outbox.cif.g08.bks.cpg/sg114_1_cif.got.tgz:1739.got - 2010.05.20 11:04:54.
