data_PCOD9555188
_publ_section_title
;
Structure prediction by ZEFSAII (Michael W. Deem and Ramdas Pophale) SiO2 
 PCOD9555188
Probable space group: P -4 2 C
;
_chemical_formula_sum "Si O2"
_cell_formula_units_Z 40
_cell_length_a 8.694684
_cell_length_b 8.694684
_cell_length_c 25.755424
_cell_angle_alpha 90.000000
_cell_angle_beta 90.000000
_cell_angle_gamma 90.000000
_cell_volume 1947.046435
_symmetry_space_group_name_H-M "P -4 2 C"
_symmetry_group_IT_number 112
_symmetry_cell_setting 'tetragonal'
loop_
_space_group_symop_operation_xyz
x,y,z
y,-x,-z
-x,-y,z
-y,x,-z
x,-y,1/2-z
-x,y,1/2-z
-y,-x,1/2+z
y,x,1/2+z
loop_
_atom_site_type_symbol
_atom_site_label
_atom_site_fract_x
_atom_site_fract_y
_atom_site_fract_z
Si Si1 0.036008 0.674309 0.810614
Si Si2 0.143548 0.910394 0.615601
Si Si3 0.715167 0.391648 0.069226
Si Si4 0.179251 0.553760 0.953550
Si Si5 0.781024 0.699814 0.125591
O O1 0.213755 0.700762 0.826269
O O2 0.000000 0.500000 0.826900
O O3 0.000000 0.690240 0.750000
O O4 0.930375 0.796799 0.841557
O O5 0.239959 0.816654 0.575125
O O6 0.261811 0.040526 0.634891
O O7 0.000000 0.000000 0.592497
O O8 0.548020 0.314518 0.073329
O O9 0.749646 0.522729 0.111694
O O10 0.764840 0.454491 0.013096
O O11 0.204722 0.716060 0.924676
O O12 0.000000 0.500000 0.949658
#
# Coordination Sequence:
#
# PCOD9555188 Si02
#       5
#     8   8   8   8   8
#     4  10  22  44  71  99 132 180 231 284 362 437
#     4  10  22  41  63  93 129 172 226 286 350 414
#     4  12  24  41  62  93 137 180 234 286 351 429
#     4  12  24  40  60  91 135 185 229 282 354 423
#     4  11  22  39  63  97 130 177 227 288 339 415
#
# _framework density 20.543938000000001
#
# number of rings (size 3 to 8) (size 9 to 14) (size 15 to 20)
#    0.000    1.000    2.000    6.600    0.000    3.600 
#    0.000    1.000    0.000    7.200    0.000    0.000 
#    0.000    0.000    0.000    0.000    0.000    0.000 
#
# Total GULP energy -223001.285142 kJ/mol
# GULP energy per Si atom -5575.032129 kJ/mol
# Density = 2.049718 g / cm^3
# Si number density = 20.543938 Si / 1000 Ang^3
#
#
#
# Elastic Constant Matrix: (Units=GPa)
#
#
# Indices 1 2 3 4 5 6 
#
# 1 121.9052 40.3193 23.3436 0.0000 0.0000 0.0000
# 2 40.3193 121.9052 23.3436 0.0000 0.0000 0.0000
# 3 23.3436 23.3436 51.6864 0.0000 0.0000 0.0000
# 4 0.0000 0.0000 0.0000 74.0250 0.0000 0.0000
# 5 0.0000 0.0000 0.0000 0.0000 74.0250 0.0000
# 6 0.0000 0.0000 0.0000 0.0000 0.0000 37.0167
#
#
#
# Elastic Compliance Matrix: (Units=1/GPa)
#
#
# Indices 1 2 3 4 5 6 
#
# 1 0.009671 -0.002586 -0.003200 0.000000 0.000000 0.000000
# 2 -0.002586 0.009671 -0.003200 0.000000 0.000000 0.000000
# 3 -0.003200 -0.003200 0.022238 0.000000 0.000000 0.000000
# 4 0.000000 0.000000 0.000000 0.013509 0.000000 0.000000
# 5 0.000000 0.000000 0.000000 0.000000 0.013509 0.000000
# 6 0.000000 0.000000 0.000000 0.000000 0.000000 0.027015
#
#
# Mechanical properties :
#
#
# Convention : Reuss Voigt Hill
#
# Bulk Modulus (GPa) = 42.35762 52.16776 47.26269
# Shear Modulus (GPa) = 41.16784 50.91272 46.04028
#
# Velocity S-wave (km/s) = 4.48134 4.98359 4.73912
# Velocity P-wave (km/s) = 6.88763 7.65266 7.28020
#
# Compressibility (1/GPa) = 0.02360850
#
# Stress axis : x y z
#
# Youngs Moduli (GPa) = 103.40064 103.40064 44.96823
#
# Poissons Ratio (x) = 0.26738 0.14390
# Poissons Ratio (y) = 0.26738 0.14390
# Poissons Ratio (z) = 0.33088 0.33088
#
# Static dielectric constant tensor:
#      x y z
#    x 1.857040 0.000000 0.000000 
#    y 0.000000 1.857040 0.000000 
#    z 0.000000 0.000000 1.703330 
# 
# From -- ./inp_files/5362.got.cif
#   From: 2010.05.17/outbox.cif.g08.bks.cpg/sg112_3_cif.got.tgz:5362.got - 2010.05.20 10:59:04.
