data_PCOD9555915
_publ_section_title
;
Structure prediction by ZEFSAII (Michael W. Deem and Ramdas Pophale) SiO2 
 PCOD9555915
Probable space group: P -4 21 C
;
_chemical_formula_sum "Si O2"
_cell_formula_units_Z 60
_cell_length_a 17.150325
_cell_length_b 17.150325
_cell_length_c 9.282315
_cell_angle_alpha 90.000000
_cell_angle_beta 90.000000
_cell_angle_gamma 90.000000
_cell_volume 2730.241169
_symmetry_space_group_name_H-M "P -4 21 C"
_symmetry_group_IT_number 114
_symmetry_cell_setting 'tetragonal'
loop_
_space_group_symop_operation_xyz
x,y,z
y,-x,-z
-x,-y,z
-y,x,-z
1/2+x,1/2-y,1/2-z
1/2-x,1/2+y,1/2-z
1/2-y,1/2-x,1/2+z
1/2+y,1/2+x,1/2+z
loop_
_atom_site_type_symbol
_atom_site_label
_atom_site_fract_x
_atom_site_fract_y
_atom_site_fract_z
Si Si1 0.500000 0.000000 0.343391
Si Si2 0.220454 0.402742 0.284800
Si Si3 0.255554 0.995418 0.642815
Si Si4 0.658209 0.933494 0.215623
Si Si5 0.344175 0.711627 0.972791
Si Si6 0.424440 0.842651 0.401449
Si Si7 0.315665 0.154509 0.490014
Si Si8 0.551770 0.603808 0.031692
O O1 0.571070 0.965320 0.248705
O O2 0.463345 0.927521 0.431372
O O3 0.214597 0.494496 0.252764
O O4 0.291816 0.365255 0.197653
O O5 0.202226 0.399530 0.454149
O O6 0.150253 0.361139 0.197799
O O7 0.259692 0.913898 0.550516
O O8 0.293355 0.979580 0.796293
O O9 0.295617 0.069821 0.565028
O O10 0.164190 0.017742 0.645942
O O11 0.674839 0.863085 0.323210
O O12 0.673256 0.898816 0.059320
O O13 0.251199 0.719523 0.986396
O O14 0.354283 0.625109 0.038910
O O15 0.584657 0.519487 0.075052
#
# Coordination Sequence:
#
# PCOD9555915 Si02
#       8
#     4   8   8   8   8   8   8   8
#     4  10  22  38  60  92 132 176 218 274 328 408
#     4  11  24  39  61  94 129 175 226 273 340 417
#     4  10  19  39  63  94 126 166 222 280 341 408
#     4  11  23  38  61  95 132 171 223 275 335 405
#     4  10  21  40  64  88 133 170 222 280 338 414
#     4  11  23  37  63  90 132 177 224 277 339 412
#     4  11  23  39  62  94 128 173 222 281 333 408
#     4   8  16  33  66  96 117 158 220 274 333 403
#
# _framework density 21.976078999999999
#
# number of rings (size 3 to 8) (size 9 to 14) (size 15 to 20)
#    0.000    1.733    2.667    1.600    1.867    4.800 
#    0.000    0.000    0.000    0.000    0.000    1.867 
#    0.000    0.000    0.000    0.000    0.000    0.000 
#
# Total GULP energy -334374.301238 kJ/mol
# GULP energy per Si atom -5572.905021 kJ/mol
# Density = 2.192606 g / cm^3
# Si number density = 21.976079 Si / 1000 Ang^3
#
#
#
# Elastic Constant Matrix: (Units=GPa)
#
#
# Indices 1 2 3 4 5 6 
#
# 1 72.6135 15.8037 14.2111 0.0000 0.0000 0.0000
# 2 15.8037 72.6135 14.2111 0.0000 0.0000 0.0000
# 3 14.2111 14.2111 105.5534 0.0000 0.0000 0.0000
# 4 0.0000 0.0000 0.0000 22.2319 0.0000 0.0000
# 5 0.0000 0.0000 0.0000 0.0000 22.2319 0.0000
# 6 0.0000 0.0000 0.0000 0.0000 0.0000 38.2673
#
#
#
# Elastic Compliance Matrix: (Units=1/GPa)
#
#
# Indices 1 2 3 4 5 6 
#
# 1 0.014712 -0.002890 -0.001592 0.000000 0.000000 0.000000
# 2 -0.002890 0.014712 -0.001592 0.000000 0.000000 0.000000
# 3 -0.001592 -0.001592 0.009902 0.000000 0.000000 0.000000
# 4 0.000000 0.000000 0.000000 0.044980 0.000000 0.000000
# 5 0.000000 0.000000 0.000000 0.000000 0.044980 0.000000
# 6 0.000000 0.000000 0.000000 0.000000 0.000000 0.026132
#
#
# Mechanical properties :
#
#
# Convention : Reuss Voigt Hill
#
# Bulk Modulus (GPa) = 36.79265 37.69246 37.24256
# Shear Modulus (GPa) = 28.30831 30.31652 29.31241
#
# Velocity S-wave (km/s) = 3.59296 3.71822 3.65613
# Velocity P-wave (km/s) = 5.83018 5.96845 5.89972
#
# Compressibility (1/GPa) = 0.02717934
#
# Stress axis : x y z
#
# Youngs Moduli (GPa) = 67.97120 67.97120 100.98514
#
# Poissons Ratio (x) = 0.19647 0.16073
# Poissons Ratio (y) = 0.19647 0.16073
# Poissons Ratio (z) = 0.10818 0.10818
#
# Static dielectric constant tensor:
#      x y z
#    x 1.909130 0.000000 0.000000 
#    y 0.000000 1.909130 0.000000 
#    z 0.000000 0.000000 1.795010 
# 
# From -- ./inp_files/1022.got.cif
#   From: 2010.05.17/outbox.cif.g08.bks.cpg/sg114_1_cif.got.tgz:1022.got - 2010.05.20 11:04:54.
