data_PCOD9555583
_publ_section_title
;
Structure prediction by ZEFSAII (Michael W. Deem and Ramdas Pophale) SiO2 
 PCOD9555583
Probable space group: P -4 21 M 
;
_chemical_formula_sum "Si O2"
_cell_formula_units_Z 48
_cell_length_a 13.618635
_cell_length_b 13.618635
_cell_length_c 15.130138
_cell_angle_alpha 90.000000
_cell_angle_beta 90.000000
_cell_angle_gamma 90.000000
_cell_volume 2806.144622
_symmetry_space_group_name_H-M "P -4 21 M "
_symmetry_group_IT_number 113
_symmetry_cell_setting 'tetragonal'
loop_
_space_group_symop_operation_xyz
x,y,z
y,-x,-z
-x,-y,z
-y,x,-z
1/2+x,1/2-y,-z
1/2-x,1/2+y,-z
1/2-y,1/2-x,z
1/2+y,1/2+x,z
loop_
_atom_site_type_symbol
_atom_site_label
_atom_site_fract_x
_atom_site_fract_y
_atom_site_fract_z
Si Si1 0.165079 0.500948 0.443048
Si Si2 0.258145 0.072582 0.376611
Si Si3 0.611490 0.279612 0.697659
Si Si4 0.081741 0.746944 0.972377
Si Si5 0.994129 0.663048 0.799212
Si Si6 0.599555 0.266131 0.903008
O O1 0.090936 0.409065 0.459213
O O2 0.230768 0.519867 0.529636
O O3 0.230966 0.475167 0.358626
O O4 0.094748 0.594748 0.428493
O O5 0.343112 0.156889 0.377373
O O6 0.157224 0.127285 0.353037
O O7 0.283754 0.002267 0.294602
O O8 0.698856 0.198856 0.698784
O O9 0.589653 0.297488 0.800482
O O10 0.154085 0.654085 0.983206
O O11 0.151053 0.840417 0.956514
O O12 0.021508 0.730512 0.881561
O O13 0.004982 0.751981 0.051520
O O14 0.891685 0.608316 0.811797
O O15 0.078426 0.578426 0.797590
O O16 0.667534 0.167534 0.905822
#
# Coordination Sequence:
#
# PCOD9555583 Si02
#       6
#     8   8   8   8   8   8
#     4   9  17  28  47  77 105 130 167 211 251 299
#     4   9  15  27  48  72 100 132 164 205 258 308
#     4   9  17  31  51  73 101 138 171 205 258 315
#     4  10  20  34  53  78 106 139 178 221 267 315
#     4   9  15  25  46  76 103 125 160 214 267 307
#     4  10  20  35  55  78 106 141 180 220 265 320
#
# _framework density 17.105319999999999
#
# number of rings (size 3 to 8) (size 9 to 14) (size 15 to 20)
#    0.000    2.667    1.667    1.000    0.000    4.000 
#    0.000    1.667    3.667    0.500    0.000    0.000 
#    0.000    0.000    0.000    0.000    0.000    0.000 
#
# Total GULP energy -267433.966688 kJ/mol
# GULP energy per Si atom -5571.540973 kJ/mol
# Density = 1.706639 g / cm^3
# Si number density = 17.105320 Si / 1000 Ang^3
#
#
#
# Elastic Constant Matrix: (Units=GPa)
#
#
# Indices 1 2 3 4 5 6 
#
# 1 57.3116 29.3117 41.2512 0.0000 0.0000 0.0000
# 2 29.3117 57.3115 41.2507 0.0000 0.0000 0.0000
# 3 41.2512 41.2507 92.3767 0.0000 0.0000 0.0000
# 4 0.0000 0.0000 0.0000 12.7251 0.0000 0.0000
# 5 0.0000 0.0000 0.0000 0.0000 12.7236 0.0000
# 6 0.0000 0.0000 0.0000 0.0000 0.0000 11.9835
#
#
#
# Elastic Compliance Matrix: (Units=1/GPa)
#
#
# Indices 1 2 3 4 5 6 
#
# 1 0.027901 -0.007813 -0.008970 0.000000 0.000000 0.000000
# 2 -0.007813 0.027901 -0.008970 0.000000 0.000000 0.000000
# 3 -0.008970 -0.008970 0.018837 0.000000 0.000000 0.000000
# 4 0.000000 0.000000 0.000000 0.078585 0.000000 0.000000
# 5 0.000000 0.000000 0.000000 0.000000 0.078594 0.000000
# 6 0.000000 0.000000 0.000000 0.000000 0.000000 0.083448
#
#
# Mechanical properties :
#
#
# Convention : Reuss Voigt Hill
#
# Bulk Modulus (GPa) = 43.23176 47.84743 45.53960
# Shear Modulus (GPa) = 13.35172 13.83219 13.59195
#
# Velocity S-wave (km/s) = 2.79688 2.84676 2.82193
# Velocity P-wave (km/s) = 5.97987 6.23204 6.10726
#
# Compressibility (1/GPa) = 0.02313114
#
# Stress axis : x y z
#
# Youngs Moduli (GPa) = 35.84083 35.84108 53.08840
#
# Poissons Ratio (x) = 0.28004 0.47622
# Poissons Ratio (y) = 0.28004 0.47620
# Poissons Ratio (z) = 0.32150 0.32150
#
# Static dielectric constant tensor:
#      x y z
#    x 1.578830 0.000000 0.000000 
#    y 0.000000 1.578830 0.000000 
#    z 0.000000 0.000000 1.567260 
# 
# From -- ./inp_files/1833.got.cif
#   From: 2010.05.17/outbox.cif.g08.bks.cpg/sg113_cif.got.tgz:1833.got - 2010.05.20 11:03:00.
