data_PCOD9555517
_publ_section_title
;
Structure prediction by ZEFSAII (Michael W. Deem and Ramdas Pophale) SiO2 
 PCOD9555517
Probable space group: P -4 21 M 
;
_chemical_formula_sum "Si O2"
_cell_formula_units_Z 64
_cell_length_a 16.860736
_cell_length_b 16.860736
_cell_length_c 14.342639
_cell_angle_alpha 90.000000
_cell_angle_beta 90.000000
_cell_angle_gamma 90.000000
_cell_volume 4077.388787
_symmetry_space_group_name_H-M "P -4 21 M "
_symmetry_group_IT_number 113
_symmetry_cell_setting 'tetragonal'
loop_
_space_group_symop_operation_xyz
x,y,z
y,-x,-z
-x,-y,z
-y,x,-z
1/2+x,1/2-y,-z
1/2-x,1/2+y,-z
1/2-y,1/2-x,z
1/2+y,1/2+x,z
loop_
_atom_site_type_symbol
_atom_site_label
_atom_site_fract_x
_atom_site_fract_y
_atom_site_fract_z
Si Si1 0.585845 0.461606 0.640474
Si Si2 0.936263 0.115441 0.990304
Si Si3 0.812229 0.178586 0.138625
Si Si4 0.665887 0.707524 0.649677
Si Si5 0.128759 0.496587 0.741621
Si Si6 0.172321 0.999529 0.553072
Si Si7 0.704864 0.494413 0.811715
Si Si8 0.084032 0.292229 0.566638
O O1 0.500000 0.500000 0.662150
O O2 0.618880 0.491565 0.540788
O O3 0.562241 0.370447 0.621972
O O4 0.650124 0.481034 0.719786
O O5 0.947617 0.161694 0.894036
O O6 0.880494 0.165450 0.060744
O O7 0.027022 0.100090 0.025181
O O8 0.738843 0.238843 0.114561
O O9 0.844510 0.208308 0.238774
O O10 0.788497 0.087571 0.161534
O O11 0.711007 0.788994 0.622079
O O12 0.583965 0.687156 0.600014
O O13 0.726954 0.637674 0.620472
O O14 0.081301 0.418700 0.779264
O O15 0.203963 0.528546 0.797761
O O16 0.165534 0.469738 0.643389
O O17 0.064146 0.564146 0.730342
O O18 0.253113 0.965420 0.514133
O O19 0.144314 0.355687 0.526731
#
# Coordination Sequence:
#
# PCOD9555517 Si02
#       8
#     8   8   8   8   8   8   8   8
#     4  12  21  29  48  77 110 141 173 210 259 316
#     4   9  21  35  51  79 108 136 172 213 275 333
#     4  10  19  35  57  76 100 136 176 219 263 315
#     4  10  20  33  53  75 101 136 178 223 258 303
#     4  10  20  34  53  76 103 139 182 222 264 311
#     4  12  19  33  47  78 106 139 179 212 258 312
#     4  11  21  34  52  78 107 139 170 219 269 323
#     4  10  19  34  50  70 102 138 177 217 257 303
#
# _framework density 15.696319000000001
#
# number of rings (size 3 to 8) (size 9 to 14) (size 15 to 20)
#    0.000    1.500    5.000    1.125    5.250    1.000 
#    0.000    0.625    0.000    0.000    0.000    0.000 
#    0.000    5.000    0.000    0.000    0.000    0.000 
#
# Total GULP energy -356487.042286 kJ/mol
# GULP energy per Si atom -5570.110036 kJ/mol
# Density = 1.566059 g / cm^3
# Si number density = 15.696319 Si / 1000 Ang^3
#
#
#
# Elastic Constant Matrix: (Units=GPa)
#
#
# Indices 1 2 3 4 5 6 
#
# 1 93.4547 57.6320 49.0368 0.0000 0.0000 0.0000
# 2 57.6320 93.4530 49.0342 0.0000 0.0000 0.0000
# 3 49.0368 49.0342 71.5768 0.0000 0.0000 0.0000
# 4 0.0000 0.0000 0.0000 18.7392 0.0000 0.0000
# 5 0.0000 0.0000 0.0000 0.0000 18.7401 0.0000
# 6 0.0000 0.0000 0.0000 0.0000 0.0000 29.5104
#
#
#
# Elastic Compliance Matrix: (Units=1/GPa)
#
#
# Indices 1 2 3 4 5 6 
#
# 1 0.019918 -0.007998 -0.008166 0.000000 0.000000 0.000000
# 2 -0.007998 0.019917 -0.008165 0.000000 0.000000 0.000000
# 3 -0.008166 -0.008165 0.025159 0.000000 0.000000 0.000000
# 4 0.000000 0.000000 0.000000 0.053364 0.000000 0.000000
# 5 0.000000 0.000000 0.000000 0.000000 0.053362 0.000000
# 6 0.000000 0.000000 0.000000 0.000000 0.000000 0.033886
#
#
# Mechanical properties :
#
#
# Convention : Reuss Voigt Hill
#
# Bulk Modulus (GPa) = 61.21748 63.32114 62.26931
# Shear Modulus (GPa) = 19.25228 20.25002 19.75115
#
# Velocity S-wave (km/s) = 3.50601 3.59571 3.55114
# Velocity P-wave (km/s) = 7.44817 7.59393 7.52141
#
# Compressibility (1/GPa) = 0.01633520
#
# Stress axis : x y z
#
# Youngs Moduli (GPa) = 50.20646 50.20796 39.74745
#
# Poissons Ratio (x) = 0.40159 0.32458
# Poissons Ratio (y) = 0.40158 0.32453
# Poissons Ratio (z) = 0.40999 0.40993
#
# Static dielectric constant tensor:
#      x y z
#    x 1.539870 0.000000 0.000000 
#    y 0.000000 1.539870 0.000000 
#    z 0.000000 0.000000 1.516510 
# 
# From -- ./inp_files/2029.got.cif
#   From: 2010.05.17/outbox.cif.g08.bks.cpg/sg113_cif.got.tgz:2029.got - 2010.05.20 11:03:00.
