data_PCOD9555017
_publ_section_title
;
Structure prediction by ZEFSAII (Michael W. Deem and Ramdas Pophale) SiO2 
 PCOD9555017
Probable space group: P -4 2 C
;
_chemical_formula_sum "Si O2"
_cell_formula_units_Z 56
_cell_length_a 22.402857
_cell_length_b 22.402857
_cell_length_c 8.049371
_cell_angle_alpha 90.000000
_cell_angle_beta 90.000000
_cell_angle_gamma 90.000000
_cell_volume 4039.882727
_symmetry_space_group_name_H-M "P -4 2 C"
_symmetry_group_IT_number 112
_symmetry_cell_setting 'tetragonal'
loop_
_space_group_symop_operation_xyz
x,y,z
y,-x,-z
-x,-y,z
-y,x,-z
x,-y,1/2-z
-x,y,1/2-z
-y,-x,1/2+z
y,x,1/2+z
loop_
_atom_site_type_symbol
_atom_site_label
_atom_site_fract_x
_atom_site_fract_y
_atom_site_fract_z
Si Si1 0.930191 0.653429 0.944822
Si Si2 0.137940 0.769367 0.040228
Si Si3 0.928449 0.348091 0.938533
Si Si4 0.230794 0.862988 0.938672
Si Si5 0.138809 0.046955 0.128522
Si Si6 0.863990 0.044035 0.878186
Si Si7 0.928132 0.432503 0.248124
O O1 0.924755 0.632105 0.753945
O O2 0.001164 0.669592 0.968116
O O3 0.886522 0.709509 0.975408
O O4 0.913688 0.605100 0.085945
O O5 0.135980 0.763655 0.239027
O O6 0.117049 0.706645 0.964821
O O7 0.201108 0.800402 0.993328
O O8 0.088853 0.815006 0.966189
O O9 0.913290 0.397026 0.078940
O O10 0.181697 0.913976 0.974204
O O11 0.089225 0.089989 0.205958
O O12 0.169818 0.000000 0.250000
O O13 0.106122 0.002560 0.001480
O O14 0.831515 0.000000 0.750000
O O15 0.904157 0.500000 0.250000
O O16 0.000000 0.436395 0.250000
#
# Coordination Sequence:
#
# PCOD9555017 Si02
#       7
#     8   8   8   8   8   8   8
#     4  10  20  32  50  71  91 116 146 180 223 277
#     4  11  22  34  47  63  83 108 142 185 225 271
#     4  10  20  32  50  72  90 117 147 178 226 277
#     4  11  22  34  48  63  83 109 142 183 227 267
#     4  11  24  32  44  56  70  95 132 175 228 280
#     4  11  22  35  43  54  68  96 128 175 228 277
#     4   9  18  33  51  72  97 119 142 175 218 272
#
# _framework density 13.861788000000001
#
# number of rings (size 3 to 8) (size 9 to 14) (size 15 to 20)
#    0.000    1.571    2.857    2.571   10.000    2.286 
#    0.000    2.857    0.000    0.000    0.000    0.000 
#    0.000    0.000    0.000    0.000    0.000    0.000 
#
# Total GULP energy -311915.589018 kJ/mol
# GULP energy per Si atom -5569.921232 kJ/mol
# Density = 1.383024 g / cm^3
# Si number density = 13.861788 Si / 1000 Ang^3
#
#
#
# Elastic Constant Matrix: (Units=GPa)
#
#
# Indices 1 2 3 4 5 6 
#
# 1 67.7999 22.6473 32.0962 0.0000 0.0000 0.0000
# 2 22.6473 67.7999 32.0962 0.0000 0.0000 0.0000
# 3 32.0962 32.0962 95.4680 0.0000 0.0000 0.0000
# 4 0.0000 0.0000 0.0000 11.2636 0.0000 0.0000
# 5 0.0000 0.0000 0.0000 0.0000 11.2636 0.0000
# 6 0.0000 0.0000 0.0000 0.0000 0.0000 7.4029
#
#
#
# Elastic Compliance Matrix: (Units=1/GPa)
#
#
# Indices 1 2 3 4 5 6 
#
# 1 0.018334 -0.003813 -0.004882 0.000000 0.000000 0.000000
# 2 -0.003813 0.018334 -0.004882 0.000000 0.000000 0.000000
# 3 -0.004882 -0.004882 0.013757 0.000000 0.000000 0.000000
# 4 0.000000 0.000000 0.000000 0.088781 0.000000 0.000000
# 5 0.000000 0.000000 0.000000 0.000000 0.088781 0.000000
# 6 0.000000 0.000000 0.000000 0.000000 0.000000 0.135083
#
#
# Mechanical properties :
#
#
# Convention : Reuss Voigt Hill
#
# Bulk Modulus (GPa) = 42.97092 44.97192 43.97142
# Shear Modulus (GPa) = 12.56337 15.60122 14.08229
#
# Velocity S-wave (km/s) = 3.01380 3.35846 3.19079
# Velocity P-wave (km/s) = 6.57096 6.89584 6.73536
#
# Compressibility (1/GPa) = 0.02327155
#
# Stress axis : x y z
#
# Youngs Moduli (GPa) = 54.54334 54.54334 72.68852
#
# Poissons Ratio (x) = 0.20798 0.35486
# Poissons Ratio (y) = 0.20798 0.35486
# Poissons Ratio (z) = 0.26628 0.26628
#
# Static dielectric constant tensor:
#      x y z
#    x 1.449010 0.000000 0.000000 
#    y 0.000000 1.449010 0.000000 
#    z 0.000000 0.000000 1.604950 
# 
# From -- ./inp_files/1595.got.cif
#   From: 2010.05.17/outbox.cif.g08.bks.cpg/sg112_1_cif.got.tgz:1595.got - 2010.05.20 10:59:04.
