data_PCOD9556119
_publ_section_title
;
Structure prediction by ZEFSAII (Michael W. Deem and Ramdas Pophale) SiO2 
 PCOD9556119
Probable space group: P -4 21 C
;
_chemical_formula_sum "Si O2"
_cell_formula_units_Z 52
_cell_length_a 16.430472
_cell_length_b 16.430472
_cell_length_c 9.806143
_cell_angle_alpha 90.000000
_cell_angle_beta 90.000000
_cell_angle_gamma 90.000000
_cell_volume 2647.270386
_symmetry_space_group_name_H-M "P -4 21 C"
_symmetry_group_IT_number 114
_symmetry_cell_setting 'tetragonal'
loop_
_space_group_symop_operation_xyz
x,y,z
y,-x,-z
-x,-y,z
-y,x,-z
1/2+x,1/2-y,1/2-z
1/2-x,1/2+y,1/2-z
1/2-y,1/2-x,1/2+z
1/2+y,1/2+x,1/2+z
loop_
_atom_site_type_symbol
_atom_site_label
_atom_site_fract_x
_atom_site_fract_y
_atom_site_fract_z
Si Si1 0.752137 0.575741 0.638732
Si Si2 0.251670 0.692442 0.315352
Si Si3 0.482371 0.182269 0.614114
Si Si4 0.500000 0.000000 0.501193
Si Si5 0.279369 0.466285 0.934430
Si Si6 0.349774 0.302189 0.989644
Si Si7 0.071553 0.351878 0.630239
O O1 0.698537 0.657123 0.622567
O O2 0.765587 0.518471 0.509937
O O3 0.722147 0.528646 0.771866
O O4 0.842753 0.609866 0.668864
O O5 0.205352 0.610434 0.358339
O O6 0.200099 0.766080 0.381795
O O7 0.265660 0.688642 0.151152
O O8 0.536178 0.200173 0.747060
O O9 0.493145 0.085425 0.581742
O O10 0.422076 0.992306 0.405010
O O11 0.279800 0.555702 0.996804
O O12 0.345859 0.400182 0.979457
O O13 0.198643 0.421839 0.991529
#
# Coordination Sequence:
#
# PCOD9556119 Si02
#       7
#     8   8   8   4   8   8   8
#     4  10  23  40  63  90 125 167 211 256 327 377
#     4  11  24  41  65  96 124 173 215 259 321 394
#     4  11  23  38  61  90 129 163 209 261 312 387
#     4  10  22  34  58  92 128 164 196 256 322 384
#     4  11  23  43  63  94 124 168 217 270 317 381
#     4  11  25  43  69  93 130 168 222 268 323 385
#     4  11  20  39  60  89 126 165 204 257 320 378
#
# _framework density 19.642875
#
# number of rings (size 3 to 8) (size 9 to 14) (size 15 to 20)
#    0.000    1.231    3.077    3.231    4.308    2.769 
#    0.000    0.000    0.000    0.462    0.000    0.000 
#    0.000    0.000    0.000    0.000    0.000    0.000 
#
# Total GULP energy -290201.690380 kJ/mol
# GULP energy per Si atom -5580.801738 kJ/mol
# Density = 1.959817 g / cm^3
# Si number density = 19.642875 Si / 1000 Ang^3
#
#
#
# Elastic Constant Matrix: (Units=GPa)
#
#
# Indices 1 2 3 4 5 6 
#
# 1 44.6676 9.1071 22.6431 0.0000 0.0000 0.0000
# 2 9.1071 44.6676 22.6431 0.0000 0.0000 0.0000
# 3 22.6431 22.6431 88.8415 0.0000 0.0000 0.0000
# 4 0.0000 0.0000 0.0000 16.5202 0.0000 0.0000
# 5 0.0000 0.0000 0.0000 0.0000 16.5202 0.0000
# 6 0.0000 0.0000 0.0000 0.0000 0.0000 33.3250
#
#
#
# Elastic Compliance Matrix: (Units=1/GPa)
#
#
# Indices 1 2 3 4 5 6 
#
# 1 0.025900 -0.002221 -0.006035 0.000000 0.000000 0.000000
# 2 -0.002221 0.025900 -0.006035 0.000000 0.000000 0.000000
# 3 -0.006035 -0.006035 0.014332 0.000000 0.000000 0.000000
# 4 0.000000 0.000000 0.000000 0.060532 0.000000 0.000000
# 5 0.000000 0.000000 0.000000 0.000000 0.060532 0.000000
# 6 0.000000 0.000000 0.000000 0.000000 0.000000 0.030008
#
#
# Mechanical properties :
#
#
# Convention : Reuss Voigt Hill
#
# Bulk Modulus (GPa) = 26.63166 31.88483 29.25824
# Shear Modulus (GPa) = 19.35715 21.52528 20.44122
#
# Velocity S-wave (km/s) = 3.14260 3.31393 3.22940
# Velocity P-wave (km/s) = 5.17255 5.55970 5.36962
#
# Compressibility (1/GPa) = 0.03754930
#
# Stress axis : x y z
#
# Youngs Moduli (GPa) = 38.61041 38.61041 69.77269
#
# Poissons Ratio (x) = 0.08577 0.42107
# Poissons Ratio (y) = 0.08577 0.42107
# Poissons Ratio (z) = 0.23301 0.23301
#
# Static dielectric constant tensor:
#      x y z
#    x 1.722370 0.000000 0.000000 
#    y 0.000000 1.722370 0.000000 
#    z 0.000000 0.000000 1.727300 
# 
# From -- ./inp_files/983.got.cif
#   From: 2010.05.17/outbox.cif.g08.bks.cpg/sg114_1_cif.got.tgz:983.got - 2010.05.20 11:04:54.
