data_PCOD9556276
_publ_section_title
;
Structure prediction by ZEFSAII (Michael W. Deem and Ramdas Pophale) SiO2 
 PCOD9556276
Probable space group: P -4 21 C
;
_chemical_formula_sum "Si O2"
_cell_formula_units_Z 38
_cell_length_a 8.750766
_cell_length_b 8.750766
_cell_length_c 22.386906
_cell_angle_alpha 90.000000
_cell_angle_beta 90.000000
_cell_angle_gamma 90.000000
_cell_volume 1714.297600
_symmetry_space_group_name_H-M "P -4 21 C"
_symmetry_group_IT_number 114
_symmetry_cell_setting 'tetragonal'
loop_
_space_group_symop_operation_xyz
x,y,z
y,-x,-z
-x,-y,z
-y,x,-z
1/2+x,1/2-y,1/2-z
1/2-x,1/2+y,1/2-z
1/2-y,1/2-x,1/2+z
1/2+y,1/2+x,1/2+z
loop_
_atom_site_type_symbol
_atom_site_label
_atom_site_fract_x
_atom_site_fract_y
_atom_site_fract_z
Si Si1 0.176964 0.483371 0.427816
Si Si2 0.787350 0.674745 0.049222
Si Si3 0.500000 0.000000 0.857410
Si Si4 0.300080 0.074198 0.746318
Si Si5 0.427435 0.759959 0.697169
Si Si6 0.000000 0.000000 0.500000
O O1 0.245598 0.650410 0.437998
O O2 0.174907 0.385608 0.488133
O O3 0.265943 0.405664 0.373023
O O4 0.000000 0.500000 0.408544
O O5 0.632029 0.580716 0.038370
O O6 0.883810 0.592111 0.100714
O O7 0.382296 0.077109 0.811103
O O8 0.396270 0.194612 0.707042
O O9 0.130408 0.127484 0.759654
O O10 0.330932 0.909754 0.717544
#
# Coordination Sequence:
#
# PCOD9556276 Si02
#       6
#     8   8   4   8   8   2
#     4  12  25  45  71  99 147 182 238 296 358 428
#     4  12  26  46  68 105 140 188 235 296 355 434
#     4  10  24  44  68  96 144 172 234 296 346 422
#     4  10  24  43  67  99 132 176 230 280 350 408
#     4  10  24  45  67  97 133 181 222 289 346 419
#     4  12  24  40  76  96 136 188 236 272 356 422
#
# _framework density 22.166512999999998
#
# number of rings (size 3 to 8) (size 9 to 14) (size 15 to 20)
#    0.000    1.263    5.263    0.000   11.789    1.263 
#    0.000    0.000    0.000    0.000    0.000    0.000 
#    0.000    0.000    0.000    0.000    0.000    0.000 
#
# Total GULP energy -212533.973759 kJ/mol
# GULP energy per Si atom -5592.999309 kJ/mol
# Density = 2.211606 g / cm^3
# Si number density = 22.166513 Si / 1000 Ang^3
#
#
#
# Elastic Constant Matrix: (Units=GPa)
#
#
# Indices 1 2 3 4 5 6 
#
# 1 61.2737 41.7149 23.8723 0.0000 0.0000 0.0000
# 2 41.7149 61.2737 23.8723 0.0000 0.0000 0.0000
# 3 23.8723 23.8723 129.7564 0.0000 0.0000 0.0000
# 4 0.0000 0.0000 0.0000 27.0329 0.0000 0.0000
# 5 0.0000 0.0000 0.0000 0.0000 27.0329 0.0000
# 6 0.0000 0.0000 0.0000 0.0000 0.0000 42.4109
#
#
#
# Elastic Compliance Matrix: (Units=1/GPa)
#
#
# Indices 1 2 3 4 5 6 
#
# 1 0.030871 -0.020256 -0.001953 0.000000 0.000000 0.000000
# 2 -0.020256 0.030871 -0.001953 0.000000 0.000000 0.000000
# 3 -0.001953 -0.001953 0.008425 0.000000 0.000000 0.000000
# 4 0.000000 0.000000 0.000000 0.036992 0.000000 0.000000
# 5 0.000000 0.000000 0.000000 0.000000 0.036992 0.000000
# 6 0.000000 0.000000 0.000000 0.000000 0.000000 0.023579
#
#
# Mechanical properties :
#
#
# Convention : Reuss Voigt Hill
#
# Bulk Modulus (GPa) = 45.77938 47.91364 46.84651
# Shear Modulus (GPa) = 22.38771 30.15162 26.26966
#
# Velocity S-wave (km/s) = 3.18146 3.69213 3.44627
# Velocity P-wave (km/s) = 5.84747 6.31174 6.08404
#
# Compressibility (1/GPa) = 0.02184389
#
# Stress axis : x y z
#
# Youngs Moduli (GPa) = 32.39239 32.39239 118.68944
#
# Poissons Ratio (x) = 0.65615 0.23180
# Poissons Ratio (y) = 0.65615 0.23180
# Poissons Ratio (z) = 0.06326 0.06326
#
# Static dielectric constant tensor:
#      x y z
#    x 1.751630 0.000000 0.000000 
#    y 0.000000 1.751630 0.000000 
#    z 0.000000 0.000000 1.802670 
# 
# From -- ./inp_files/3448.got.cif
#   From: 2010.05.17/outbox.cif.g08.bks.cpg/sg114_2_cif.got.tgz:3448.got - 2010.05.20 11:04:54.
