data_PCOD9556064
_publ_section_title
;
Structure prediction by ZEFSAII (Michael W. Deem and Ramdas Pophale) SiO2 
 PCOD9556064
Probable space group: P -4 21 C
;
_chemical_formula_sum "Si O2"
_cell_formula_units_Z 60
_cell_length_a 10.545349
_cell_length_b 10.545349
_cell_length_c 23.116743
_cell_angle_alpha 90.000000
_cell_angle_beta 90.000000
_cell_angle_gamma 90.000000
_cell_volume 2570.683201
_symmetry_space_group_name_H-M "P -4 21 C"
_symmetry_group_IT_number 114
_symmetry_cell_setting 'tetragonal'
loop_
_space_group_symop_operation_xyz
x,y,z
y,-x,-z
-x,-y,z
-y,x,-z
1/2+x,1/2-y,1/2-z
1/2-x,1/2+y,1/2-z
1/2-y,1/2-x,1/2+z
1/2+y,1/2+x,1/2+z
loop_
_atom_site_type_symbol
_atom_site_label
_atom_site_fract_x
_atom_site_fract_y
_atom_site_fract_z
Si Si1 0.000000 0.000000 0.802977
Si Si2 0.189818 0.167241 0.744957
Si Si3 0.642290 0.846905 0.979158
Si Si4 0.630898 0.252006 0.947225
Si Si5 0.265885 0.248850 0.369520
Si Si6 0.510624 0.643073 0.140687
Si Si7 0.781229 0.161069 0.850564
Si Si8 0.013669 0.649369 0.903896
O O1 0.948178 0.877651 0.767945
O O2 0.121797 0.951982 0.838385
O O3 0.267282 0.188624 0.803627
O O4 0.208157 0.293704 0.707109
O O5 0.220100 0.058562 0.697201
O O6 0.501891 0.788365 0.973848
O O7 0.690969 0.864640 0.914494
O O8 0.731606 0.735760 0.004057
O O9 0.649248 0.956416 0.027181
O O10 0.634223 0.385611 0.911012
O O11 0.677485 0.149911 0.900465
O O12 0.128298 0.184040 0.377893
O O13 0.231446 0.393374 0.384993
O O14 0.500000 0.500000 0.160997
O O15 0.870110 0.277482 0.873489
O O16 0.000000 0.500000 0.887682
#
# Coordination Sequence:
#
# PCOD9556064 Si02
#       8
#     4   8   8   8   8   8   8   8
#     4  12  22  48  70  95 154 191 234 302 364 444
#     4  11  24  40  70 104 138 188 241 295 364 440
#     4  11  23  41  68 103 139 185 242 314 360 443
#     4  10  21  39  67 107 139 174 245 304 380 418
#     4  12  24  43  68 102 139 197 243 291 381 443
#     4  11  21  40  72 104 137 180 244 315 363 435
#     4  10  24  43  71 106 136 191 243 299 364 451
#     4  11  23  46  66  97 147 193 238 302 368 443
#
# _framework density 23.340097
#
# number of rings (size 3 to 8) (size 9 to 14) (size 15 to 20)
#    0.000    1.067    3.333    4.800    0.000    0.000 
#    7.200    0.000    2.933    0.800    0.000    0.000 
#    0.000    0.000    0.000    0.000    0.000    0.000 
#
# Total GULP energy -335029.111642 kJ/mol
# GULP energy per Si atom -5583.818527 kJ/mol
# Density = 2.328697 g / cm^3
# Si number density = 23.340097 Si / 1000 Ang^3
#
#
#
# Elastic Constant Matrix: (Units=GPa)
#
#
# Indices 1 2 3 4 5 6 
#
# 1 77.3198 13.0007 23.9544 0.0000 0.0000 0.0000
# 2 13.0007 77.3198 23.9544 0.0000 0.0000 0.0000
# 3 23.9544 23.9544 138.7177 0.0000 0.0000 0.0000
# 4 0.0000 0.0000 0.0000 21.7159 0.0000 0.0000
# 5 0.0000 0.0000 0.0000 0.0000 21.7159 0.0000
# 6 0.0000 0.0000 0.0000 0.0000 0.0000 33.9266
#
#
#
# Elastic Compliance Matrix: (Units=1/GPa)
#
#
# Indices 1 2 3 4 5 6 
#
# 1 0.013868 -0.001680 -0.002105 0.000000 0.000000 0.000000
# 2 -0.001680 0.013868 -0.002105 0.000000 0.000000 0.000000
# 3 -0.002105 -0.002105 0.007936 0.000000 0.000000 0.000000
# 4 0.000000 0.000000 0.000000 0.046049 0.000000 0.000000
# 5 0.000000 0.000000 0.000000 0.000000 0.046049 0.000000
# 6 0.000000 0.000000 0.000000 0.000000 0.000000 0.029475
#
#
# Mechanical properties :
#
#
# Convention : Reuss Voigt Hill
#
# Bulk Modulus (GPa) = 41.85294 46.13067 43.99180
# Shear Modulus (GPa) = 28.25057 30.96822 29.60939
#
# Velocity S-wave (km/s) = 3.48284 3.64651 3.56561
# Velocity P-wave (km/s) = 5.84331 6.12673 5.98670
#
# Compressibility (1/GPa) = 0.02389319
#
# Stress axis : x y z
#
# Youngs Moduli (GPa) = 72.10958 72.10958 126.01158
#
# Poissons Ratio (x) = 0.12112 0.26522
# Poissons Ratio (y) = 0.12112 0.26522
# Poissons Ratio (z) = 0.15177 0.15177
#
# Static dielectric constant tensor:
#      x y z
#    x 1.908850 0.000000 0.000000 
#    y 0.000000 1.908850 0.000000 
#    z 0.000000 0.000000 1.920090 
# 
# From -- ./inp_files/3236.got.cif
#   From: 2010.05.17/outbox.cif.g08.bks.cpg/sg114_2_cif.got.tgz:3236.got - 2010.05.20 11:04:54.
