data_PCOD9556672
_publ_section_title
;
Structure prediction by ZEFSAII (Michael W. Deem and Ramdas Pophale) SiO2 
 PCOD9556672
Probable space group: P -4 M 2
;
_chemical_formula_sum "Si O2"
_cell_formula_units_Z 64
_cell_length_a 14.659047
_cell_length_b 14.659047
_cell_length_c 17.989351
_cell_angle_alpha 90.000000
_cell_angle_beta 90.000000
_cell_angle_gamma 90.000000
_cell_volume 3865.689522
_symmetry_space_group_name_H-M "P -4 M 2"
_symmetry_group_IT_number 115
_symmetry_cell_setting 'tetragonal'
loop_
_space_group_symop_operation_xyz
x,y,z
y,-x,-z
-x,-y,z
-y,x,-z
y,x,-z
-y,-x,-z
-x,y,z
x,-y,z
loop_
_atom_site_type_symbol
_atom_site_label
_atom_site_fract_x
_atom_site_fract_y
_atom_site_fract_z
Si Si1 0.892177 0.393780 0.213146
Si Si2 0.891920 0.257825 0.912428
Si Si3 0.850636 0.395699 0.613533
Si Si4 0.894825 0.742002 0.487570
Si Si5 0.395923 0.110201 0.217069
Si Si6 0.599535 0.363855 0.414366
Si Si7 0.603979 0.802220 0.629765
Si Si8 0.107376 0.257542 0.081439
O O1 0.879289 0.500000 0.194213
O O2 0.835752 0.374268 0.287413
O O3 0.867597 0.330847 0.143795
O O4 0.000000 0.380615 0.229464
O O5 0.862362 0.328534 0.848914
O O6 0.832668 0.166716 0.906975
O O7 0.000000 0.240545 0.903519
O O8 0.877910 0.292480 0.997037
O O9 0.886967 0.500000 0.605716
O O10 0.895956 0.320202 0.561861
O O11 0.856331 0.370888 0.700499
O O12 0.745579 0.398308 0.588680
O O13 0.830385 0.830385 0.500000
O O14 0.846110 0.677125 0.426267
O O15 0.000000 0.763675 0.467501
O O16 0.500000 0.139641 0.202141
O O17 0.395202 0.000000 0.219873
O O18 0.606378 0.393623 0.500000
O O19 0.500000 0.392579 0.384522
O O20 0.692556 0.394741 0.375678
O O21 0.500000 0.832772 0.611095
O O22 0.000000 0.237592 0.088363
#
# Coordination Sequence:
#
# PCOD9556672 Si02
#       8
#     8   8   8   8   8   8   8   8
#     4   9  19  34  52  75 101 131 170 217 260 300
#     4   9  18  31  49  75 102 131 167 204 248 306
#     4  10  19  34  54  77 102 131 169 209 256 309
#     4  12  24  38  55  75 102 137 176 218 261 306
#     4   9  18  31  48  73 101 127 160 206 254 299
#     4  11  21  34  53  78 108 139 171 209 259 316
#     4  11  21  36  56  80 105 134 175 217 261 311
#     4   9  18  32  50  72 100 134 168 205 252 302
#
# _framework density 16.555907999999999
#
# number of rings (size 3 to 8) (size 9 to 14) (size 15 to 20)
#    0.000    2.000    2.500    1.500    1.750    3.750 
#    0.000    3.750    0.000    0.000    0.000    3.500 
#    0.000    0.000    0.000    2.750    0.000    0.250 
#
# Total GULP energy -356817.041787 kJ/mol
# GULP energy per Si atom -5575.266278 kJ/mol
# Density = 1.651823 g / cm^3
# Si number density = 16.555908 Si / 1000 Ang^3
#
#
#
# Elastic Constant Matrix: (Units=GPa)
#
#
# Indices 1 2 3 4 5 6 
#
# 1 86.6593 42.4596 59.2530 0.0000 0.0000 0.0000
# 2 42.4596 86.6592 59.2529 0.0000 0.0000 0.0000
# 3 59.2530 59.2529 111.6529 0.0000 0.0000 0.0000
# 4 0.0000 0.0000 0.0000 22.6433 0.0000 0.0000
# 5 0.0000 0.0000 0.0000 0.0000 22.6433 0.0000
# 6 0.0000 0.0000 0.0000 0.0000 0.0000 16.6271
#
#
#
# Elastic Compliance Matrix: (Units=1/GPa)
#
#
# Indices 1 2 3 4 5 6 
#
# 1 0.018862 -0.003763 -0.008013 0.000000 0.000000 0.000000
# 2 -0.003763 0.018862 -0.008013 0.000000 0.000000 0.000000
# 3 -0.008013 -0.008013 0.017461 0.000000 0.000000 0.000000
# 4 0.000000 0.000000 0.000000 0.044163 0.000000 0.000000
# 5 0.000000 0.000000 0.000000 0.000000 0.044163 0.000000
# 6 0.000000 0.000000 0.000000 0.000000 0.000000 0.060143
#
#
# Mechanical properties :
#
#
# Convention : Reuss Voigt Hill
#
# Bulk Modulus (GPa) = 64.07147 67.43360 65.75253
# Shear Modulus (GPa) = 20.12608 20.64979 20.38793
#
# Velocity S-wave (km/s) = 3.49039 3.53551 3.51302
# Velocity P-wave (km/s) = 7.41808 7.58193 7.50045
#
# Compressibility (1/GPa) = 0.01560757
#
# Stress axis : x y z
#
# Youngs Moduli (GPa) = 53.01699 53.01705 57.27028
#
# Poissons Ratio (x) = 0.19949 0.45890
# Poissons Ratio (y) = 0.19949 0.45890
# Poissons Ratio (z) = 0.42482 0.42482
#
# Static dielectric constant tensor:
#      x y z
#    x 1.564340 0.000000 0.000000 
#    y 0.000000 1.564340 0.000000 
#    z 0.000000 0.000000 1.549770 
# 
# From -- ./inp_files/4434.got.cif
#   From: 2010.05.17/outbox.cif.g08.bks.cpg/sg115_3_cif.got.tgz:4434.got - 2010.05.20 11:07:42.
