data_PCOD9556626
_publ_section_title
;
Structure prediction by ZEFSAII (Michael W. Deem and Ramdas Pophale) SiO2 
 PCOD9556626
Probable space group: P -4 M 2
;
_chemical_formula_sum "Si O2"
_cell_formula_units_Z 64
_cell_length_a 20.480429
_cell_length_b 20.480429
_cell_length_c 7.673260
_cell_angle_alpha 90.000000
_cell_angle_beta 90.000000
_cell_angle_gamma 90.000000
_cell_volume 3218.533346
_symmetry_space_group_name_H-M "P -4 M 2"
_symmetry_group_IT_number 115
_symmetry_cell_setting 'tetragonal'
loop_
_space_group_symop_operation_xyz
x,y,z
y,-x,-z
-x,-y,z
-y,x,-z
y,x,-z
-y,-x,-z
-x,y,z
x,-y,z
loop_
_atom_site_type_symbol
_atom_site_label
_atom_site_fract_x
_atom_site_fract_y
_atom_site_fract_z
Si Si1 0.313813 0.705722 0.710212
Si Si2 0.071541 0.237776 0.197014
Si Si3 0.573062 0.737726 0.193047
Si Si4 0.807366 0.791805 0.704193
Si Si5 0.116690 0.425027 0.930512
Si Si6 0.789488 0.427658 0.409747
Si Si7 0.929265 0.292090 0.802795
Si Si8 0.074334 0.617773 0.318431
O O1 0.305055 0.694946 0.500000
O O2 0.309130 0.636383 0.808634
O O3 0.253985 0.750437 0.774891
O O4 0.378911 0.748770 0.712303
O O5 0.135397 0.193594 0.218061
O O6 0.079152 0.303501 0.311554
O O7 0.000000 0.208007 0.233924
O O8 0.069452 0.266349 0.001960
O O9 0.500000 0.711785 0.151682
O O10 0.583416 0.804948 0.086740
O O11 0.571747 0.760048 0.396343
O O12 0.797855 0.797855 0.500000
O O13 0.871523 0.749269 0.724092
O O14 0.101913 0.500000 0.883308
O O15 0.085127 0.368944 0.811862
O O16 0.090234 0.410212 0.124699
O O17 0.786588 0.500000 0.334889
O O18 0.864792 0.407331 0.428058
O O19 0.000000 0.280365 0.721877
O O20 0.000000 0.599978 0.365427
#
# Coordination Sequence:
#
# PCOD9556626 Si02
#       8
#     8   8   8   8   8   8   8   8
#     4   9  17  31  50  72  99 130 166 208 256 297
#     4   9  19  35  53  75 103 137 173 208 252 304
#     4   9  18  33  52  72  97 131 171 211 252 299
#     4  11  20  33  55  78 103 134 172 216 259 300
#     4  10  19  32  50  72 102 138 172 204 244 294
#     4  10  19  32  51  73  99 132 170 210 251 301
#     4  10  21  35  52  76 105 138 174 210 253 308
#     4  10  20  33  49  70 101 138 170 204 245 292
#
# _framework density 19.884834999999999
#
# number of rings (size 3 to 8) (size 9 to 14) (size 15 to 20)
#    0.000    2.250    2.500    1.875    0.000    2.250 
#    0.000    3.125    0.000    5.250    0.000    5.250 
#    0.000    0.000    0.000    3.125    0.000    4.000 
#
# Total GULP energy -357274.549168 kJ/mol
# GULP energy per Si atom -5582.414831 kJ/mol
# Density = 1.983958 g / cm^3
# Si number density = 19.884835 Si / 1000 Ang^3
#
#
#
# Elastic Constant Matrix: (Units=GPa)
#
#
# Indices 1 2 3 4 5 6 
#
# 1 36.7941 -2.3221 45.7069 0.0000 0.0000 0.0000
# 2 -2.3221 36.7943 45.7067 0.0000 0.0000 0.0000
# 3 45.7069 45.7067 17.1137 0.0000 0.0000 0.0000
# 4 0.0000 0.0000 0.0000 15.8109 0.0000 0.0000
# 5 0.0000 0.0000 0.0000 0.0000 15.8108 0.0000
# 6 0.0000 0.0000 0.0000 0.0000 0.0000 22.7785
#
#
#
# Elastic Compliance Matrix: (Units=1/GPa)
#
#
# Indices 1 2 3 4 5 6 
#
# 1 0.010398 -0.015167 0.012738 0.000000 0.000000 0.000000
# 2 -0.015167 0.010398 0.012738 0.000000 0.000000 0.000000
# 3 0.012738 0.012738 -0.009607 0.000000 0.000000 0.000000
# 4 0.000000 0.000000 0.000000 0.063247 0.000000 0.000000
# 5 0.000000 0.000000 0.000000 0.000000 0.063248 0.000000
# 6 0.000000 0.000000 0.000000 0.000000 0.000000 0.043901
#
#
# Mechanical properties :
#
#
# Convention : Reuss Voigt Hill
#
# Bulk Modulus (GPa) = 31.44093 29.87614 30.65853
# Shear Modulus (GPa) = 29.14265 10.98742 20.06504
#
# Velocity S-wave (km/s) = 3.83243 2.35319 3.18002
# Velocity P-wave (km/s) = 5.95224 4.73715 5.37912
#
# Compressibility (1/GPa) = 0.03180568
#
# Stress axis : x y z
#
# Youngs Moduli (GPa) = 96.17543 96.17419 -104.09243
#
# Poissons Ratio (x) = 1.45868 1.32591
# Poissons Ratio (y) = 1.45870 1.32590
# Poissons Ratio (z) = -1.22507 -1.22504
#
# Static dielectric constant tensor:
#      x y z
#    x 1.725480 0.000000 0.000000 
#    y 0.000000 1.725480 0.000000 
#    z 0.000000 0.000000 1.782790 
# 
# From -- ./inp_files/2160.got.cif
#   From: 2010.05.17/outbox.cif.g08.bks.cpg/sg115_2_cif.got.tgz:2160.got - 2010.05.20 11:07:42.
