data_PCOD9556164
_publ_section_title
;
Structure prediction by ZEFSAII (Michael W. Deem and Ramdas Pophale) SiO2 
 PCOD9556164
Probable space group: P -4 21 C
;
_chemical_formula_sum "Si O2"
_cell_formula_units_Z 48
_cell_length_a 8.686385
_cell_length_b 8.686385
_cell_length_c 30.384707
_cell_angle_alpha 90.000000
_cell_angle_beta 90.000000
_cell_angle_gamma 90.000000
_cell_volume 2292.625938
_symmetry_space_group_name_H-M "P -4 21 C"
_symmetry_group_IT_number 114
_symmetry_cell_setting 'tetragonal'
loop_
_space_group_symop_operation_xyz
x,y,z
y,-x,-z
-x,-y,z
-y,x,-z
1/2+x,1/2-y,1/2-z
1/2-x,1/2+y,1/2-z
1/2-y,1/2-x,1/2+z
1/2+y,1/2+x,1/2+z
loop_
_atom_site_type_symbol
_atom_site_label
_atom_site_fract_x
_atom_site_fract_y
_atom_site_fract_z
Si Si1 0.411610 0.662478 0.270899
Si Si2 0.182602 0.998216 0.864432
Si Si3 0.699896 0.328622 0.895986
Si Si4 0.833728 0.437055 0.807088
Si Si5 0.846375 0.408436 0.082523
Si Si6 0.258491 0.578562 0.990808
O O1 0.500000 0.500000 0.264818
O O2 0.487226 0.740520 0.314259
O O3 0.445821 0.760148 0.227738
O O4 0.231244 0.648730 0.283574
O O5 0.227259 0.840351 0.888816
O O6 0.252817 0.142496 0.890095
O O7 0.000000 0.000000 0.862088
O O8 0.731325 0.416227 0.850761
O O9 0.518861 0.297067 0.906207
O O10 0.776128 0.399933 0.939620
O O11 0.000000 0.500000 0.820252
O O12 0.000000 0.500000 0.096567
O O13 0.857449 0.382597 0.030165
O O14 0.404549 0.687141 0.001261
#
# Coordination Sequence:
#
# PCOD9556164 Si02
#       6
#     8   8   8   8   8   8
#     4  10  22  41  61  88 124 162 206 256 315 387
#     4   9  19  38  58  86 125 157 198 256 310 369
#     4   9  20  39  57  86 119 155 208 247 304 380
#     4  11  23  41  63  90 126 162 206 266 318 377
#     4   9  18  36  61  83 115 162 200 244 312 375
#     4   9  18  37  56  80 116 152 200 257 296 355
#
# _framework density 20.936693000000002
#
# number of rings (size 3 to 8) (size 9 to 14) (size 15 to 20)
#    0.000    2.500    0.000    1.000    0.000    5.333 
#   27.000    0.000    0.000    0.000    0.000    0.000 
#    0.000    0.000    0.000    0.000    0.000    0.000 
#
# Total GULP energy -267775.111363 kJ/mol
# GULP energy per Si atom -5578.648153 kJ/mol
# Density = 2.088904 g / cm^3
# Si number density = 20.936693 Si / 1000 Ang^3
#
#
#
# Elastic Constant Matrix: (Units=GPa)
#
#
# Indices 1 2 3 4 5 6 
#
# 1 38.4643 7.0541 40.0325 0.0000 0.0000 0.0000
# 2 7.0541 38.4643 40.0325 0.0000 0.0000 0.0000
# 3 40.0325 40.0325 144.3726 0.0000 0.0000 0.0000
# 4 0.0000 0.0000 0.0000 35.5742 0.0000 0.0000
# 5 0.0000 0.0000 0.0000 0.0000 35.5742 0.0000
# 6 0.0000 0.0000 0.0000 0.0000 0.0000 21.2584
#
#
#
# Elastic Compliance Matrix: (Units=1/GPa)
#
#
# Indices 1 2 3 4 5 6 
#
# 1 0.037362 0.005525 -0.011892 0.000000 0.000000 0.000000
# 2 0.005525 0.037362 -0.011892 0.000000 0.000000 0.000000
# 3 -0.011892 -0.011892 0.013521 0.000000 0.000000 0.000000
# 4 0.000000 0.000000 0.000000 0.028110 0.000000 0.000000
# 5 0.000000 0.000000 0.000000 0.000000 0.028110 0.000000
# 6 0.000000 0.000000 0.000000 0.000000 0.000000 0.047040
#
#
# Mechanical properties :
#
#
# Convention : Reuss Voigt Hill
#
# Bulk Modulus (GPa) = 19.33232 43.94883 31.64058
# Shear Modulus (GPa) = 20.38610 27.42682 23.90646
#
# Velocity S-wave (km/s) = 3.12380 3.62330 3.38279
# Velocity P-wave (km/s) = 4.71854 6.20816 5.51389
#
# Compressibility (1/GPa) = 0.05172685
#
# Stress axis : x y z
#
# Youngs Moduli (GPa) = 26.76547 26.76547 73.95695
#
# Poissons Ratio (x) = -0.14787 0.87948
# Poissons Ratio (y) = -0.14787 0.87948
# Poissons Ratio (z) = 0.31829 0.31829
#
# Static dielectric constant tensor:
#      x y z
#    x 1.777640 0.000000 0.000000 
#    y 0.000000 1.777640 0.000000 
#    z 0.000000 0.000000 1.760920 
# 
# From -- ./inp_files/3973.got.cif
#   From: 2010.05.17/outbox.cif.g08.bks.cpg/sg114_2_cif.got.tgz:3973.got - 2010.05.20 11:04:54.
