data_PCOD9556884
_publ_section_title
;
Structure prediction by ZEFSAII (Michael W. Deem and Ramdas Pophale) SiO2 
 PCOD9556884
Probable space group: P -4 M 2
;
_chemical_formula_sum "Si O2"
_cell_formula_units_Z 48
_cell_length_a 9.131717
_cell_length_b 9.131717
_cell_length_c 31.908037
_cell_angle_alpha 90.000000
_cell_angle_beta 90.000000
_cell_angle_gamma 90.000000
_cell_volume 2660.755538
_symmetry_space_group_name_H-M "P -4 M 2"
_symmetry_group_IT_number 115
_symmetry_cell_setting 'tetragonal'
loop_
_space_group_symop_operation_xyz
x,y,z
y,-x,-z
-x,-y,z
-y,x,-z
y,x,-z
-y,-x,-z
-x,y,z
x,-y,z
loop_
_atom_site_type_symbol
_atom_site_label
_atom_site_fract_x
_atom_site_fract_y
_atom_site_fract_z
Si Si1 0.670400 0.176183 0.038444
Si Si2 0.325377 0.825687 0.460188
Si Si3 0.175991 0.326539 0.381053
Si Si4 0.178155 0.831724 0.295104
Si Si5 0.323488 0.172372 0.131988
Si Si6 0.175983 0.671786 0.210014
O O1 0.500000 0.218691 0.034383
O O2 0.721968 0.220914 0.085081
O O3 0.677101 0.000000 0.037555
O O4 0.758730 0.241271 0.000000
O O5 0.249129 0.750872 0.500000
O O6 0.500000 0.801974 0.461863
O O7 0.258116 0.754947 0.418447
O O8 0.298496 0.000000 0.460655
O O9 0.204591 0.500000 0.382132
O O10 0.220635 0.258696 0.336307
O O11 0.000000 0.305980 0.385811
O O12 0.225601 0.756766 0.251837
O O13 0.000000 0.831524 0.294506
O O14 0.226862 0.000000 0.297702
O O15 0.500000 0.184305 0.133855
O O16 0.250254 0.262688 0.168871
O O17 0.287061 0.000000 0.136763
O O18 0.207660 0.500000 0.214368
O O19 0.000000 0.688880 0.206596
#
# Coordination Sequence:
#
# PCOD9556884 Si02
#       6
#     8   8   8   8   8   8
#     4   9  19  35  53  74 101 132 168 211 258 309
#     4  11  24  40  58  82 111 143 181 223 266 314
#     4  10  20  35  57  84 112 142 177 218 265 316
#     4   9  17  31  53  79 107 141 179 218 262 312
#     4   9  19  36  54  72  99 136 174 212 257 310
#     4  10  20  33  51  78 109 138 172 217 265 312
#
# _framework density 18.03999
#
# number of rings (size 3 to 8) (size 9 to 14) (size 15 to 20)
#    0.000    2.333    0.000    3.500    0.000    9.333 
#    0.000    5.833    0.000    5.000    0.000    0.000 
#    0.000    0.000    0.000    0.000    0.000    0.000 
#
# Total GULP energy -267927.394513 kJ/mol
# GULP energy per Si atom -5581.820719 kJ/mol
# Density = 1.799893 g / cm^3
# Si number density = 18.039990 Si / 1000 Ang^3
#
#
#
# Elastic Constant Matrix: (Units=GPa)
#
#
# Indices 1 2 3 4 5 6 
#
# 1 70.6332 56.7999 76.4945 0.0000 0.0000 0.0000
# 2 56.7999 70.6358 76.4958 0.0000 0.0000 0.0000
# 3 76.4945 76.4958 199.2722 0.0000 0.0000 0.0000
# 4 0.0000 0.0000 0.0000 127.4062 0.0000 0.0000
# 5 0.0000 0.0000 0.0000 0.0000 127.4047 0.0000
# 6 0.0000 0.0000 0.0000 0.0000 0.0000 25.3728
#
#
#
# Elastic Compliance Matrix: (Units=1/GPa)
#
#
# Indices 1 2 3 4 5 6 
#
# 1 0.043420 -0.028864 -0.005587 0.000000 0.000000 0.000000
# 2 -0.028864 0.043418 -0.005587 0.000000 0.000000 0.000000
# 3 -0.005587 -0.005587 0.009308 0.000000 0.000000 0.000000
# 4 0.000000 0.000000 0.000000 0.007849 0.000000 0.000000
# 5 0.000000 0.000000 0.000000 0.000000 0.007849 0.000000
# 6 0.000000 0.000000 0.000000 0.000000 0.000000 0.039412
#
#
# Mechanical properties :
#
#
# Convention : Reuss Voigt Hill
#
# Bulk Modulus (GPa) = 62.23288 84.45797 73.34543
# Shear Modulus (GPa) = 21.12481 64.75347 42.93914
#
# Velocity S-wave (km/s) = 3.42570 5.99769 4.88404
# Velocity P-wave (km/s) = 7.08656 9.74073 8.51766
#
# Compressibility (1/GPa) = 0.01606868
#
# Stress axis : x y z
#
# Youngs Moduli (GPa) = 23.03107 23.03195 107.43663
#
# Poissons Ratio (x) = 0.66479 0.60028
# Poissons Ratio (y) = 0.66477 0.60026
# Poissons Ratio (z) = 0.12868 0.12868
#
# Static dielectric constant tensor:
#      x y z
#    x 1.601080 0.000000 0.000000 
#    y 0.000000 1.601080 0.000000 
#    z 0.000000 0.000000 1.596080 
# 
# From -- ./inp_files/6033.got.cif
#   From: 2010.05.17/outbox.cif.g08.bks.cpg/sg115_4_cif.got.tgz:6033.got - 2010.05.20 11:07:42.
