data_PCOD9556239
_publ_section_title
;
Structure prediction by ZEFSAII (Michael W. Deem and Ramdas Pophale) SiO2 
 PCOD9556239
Probable space group: P -4 21 C
;
_chemical_formula_sum "Si O2"
_cell_formula_units_Z 38
_cell_length_a 7.859820
_cell_length_b 7.859820
_cell_length_c 30.416858
_cell_angle_alpha 90.000000
_cell_angle_beta 90.000000
_cell_angle_gamma 90.000000
_cell_volume 1879.055254
_symmetry_space_group_name_H-M "P -4 21 C"
_symmetry_group_IT_number 114
_symmetry_cell_setting 'tetragonal'
loop_
_space_group_symop_operation_xyz
x,y,z
y,-x,-z
-x,-y,z
-y,x,-z
1/2+x,1/2-y,1/2-z
1/2-x,1/2+y,1/2-z
1/2-y,1/2-x,1/2+z
1/2+y,1/2+x,1/2+z
loop_
_atom_site_type_symbol
_atom_site_label
_atom_site_fract_x
_atom_site_fract_y
_atom_site_fract_z
Si Si1 0.466910 0.296730 0.403301
Si Si2 0.816717 0.434879 0.789661
Si Si3 0.246113 0.487694 0.077834
Si Si4 0.536116 0.305532 0.301370
Si Si5 0.000000 0.000000 0.343207
Si Si6 0.500000 0.500000 0.000000
O O1 0.500000 0.500000 0.413080
O O2 0.305408 0.189400 0.421058
O O3 0.465525 0.280536 0.350231
O O4 0.609478 0.164412 0.420202
O O5 0.806388 0.457034 0.737187
O O6 0.786445 0.238795 0.801092
O O7 0.663018 0.534970 0.812792
O O8 0.000000 0.500000 0.805226
O O9 0.349010 0.462471 0.122938
O O10 0.348960 0.459411 0.033392
O O11 0.500000 0.500000 0.288697
#
# Coordination Sequence:
#
# PCOD9556239 Si02
#       6
#     8   8   8   8   4   2
#     4  10  23  43  69 102 136 179 221 274 347 408
#     4  12  26  38  61  92 134 187 239 284 326 388
#     4  10  23  46  73  96 135 172 217 292 346 422
#     4  11  24  41  61  94 136 177 240 278 330 391
#     4  11  24  41  62  94 130 178 234 275 346 385
#     4  10  24  52  72 104 128 164 224 272 360 434
#
# _framework density 20.222929000000001
#
# number of rings (size 3 to 8) (size 9 to 14) (size 15 to 20)
#    0.000    1.263    3.158    1.263   11.789    0.000 
#    7.579    2.105    0.000    0.000    0.000    0.000 
#    0.000    0.000    0.000    0.000    0.000    0.000 
#
# Total GULP energy -211877.966836 kJ/mol
# GULP energy per Si atom -5575.735969 kJ/mol
# Density = 2.017690 g / cm^3
# Si number density = 20.222929 Si / 1000 Ang^3
#
#
#
# Elastic Constant Matrix: (Units=GPa)
#
#
# Indices 1 2 3 4 5 6 
#
# 1 74.8157 1.6053 24.2206 0.0000 0.0000 0.0000
# 2 1.6053 74.8157 24.2206 0.0000 0.0000 0.0000
# 3 24.2206 24.2206 85.3397 0.0000 0.0000 0.0000
# 4 0.0000 0.0000 0.0000 -7.8303 0.0000 0.0000
# 5 0.0000 0.0000 0.0000 0.0000 -7.8303 0.0000
# 6 0.0000 0.0000 0.0000 0.0000 0.0000 25.8479
#
#
#
# Elastic Compliance Matrix: (Units=1/GPa)
#
#
# Indices 1 2 3 4 5 6 
#
# 1 0.014808 0.001148 -0.004529 0.000000 0.000000 0.000000
# 2 0.001148 0.014808 -0.004529 0.000000 0.000000 0.000000
# 3 -0.004529 -0.004529 0.014288 0.000000 0.000000 0.000000
# 4 0.000000 0.000000 0.000000 -0.127709 0.000000 0.000000
# 5 0.000000 0.000000 0.000000 0.000000 -0.127709 0.000000
# 6 0.000000 0.000000 0.000000 0.000000 0.000000 0.038688
#
#
# Mechanical properties :
#
#
# Convention : Reuss Voigt Hill
#
# Bulk Modulus (GPa) = 35.60471 37.22934 36.41703
# Shear Modulus (GPa) = -33.86455 14.36576 -9.74939
#
# Velocity S-wave (km/s) = -4.09658 2.66817 -2.19805
# Velocity P-wave (km/s) = 2.17523 5.28598 3.40661
#
# Compressibility (1/GPa) = 0.02808617
#
# Stress axis : x y z
#
# Youngs Moduli (GPa) = 67.53292 67.53292 69.98685
#
# Poissons Ratio (x) = -0.07755 0.31694
# Poissons Ratio (y) = -0.07755 0.31694
# Poissons Ratio (z) = 0.30582 0.30582
#
# Static dielectric constant tensor:
#      x y z
#    x 1.791050 0.000000 0.000000 
#    y 0.000000 1.791050 0.000000 
#    z 0.000000 0.000000 1.667270 
# 
# From -- ./inp_files/3806.got.cif
#   From: 2010.05.17/outbox.cif.g08.bks.cpg/sg114_2_cif.got.tgz:3806.got - 2010.05.20 11:04:54.
