data_PCOD9556437
_publ_section_title
;
Structure prediction by ZEFSAII (Michael W. Deem and Ramdas Pophale) SiO2 
 PCOD9556437
Probable space group: P -4 21 C
;
_chemical_formula_sum "Si O2"
_cell_formula_units_Z 26
_cell_length_a 9.399887
_cell_length_b 9.399887
_cell_length_c 13.820046
_cell_angle_alpha 90.000000
_cell_angle_beta 90.000000
_cell_angle_gamma 90.000000
_cell_volume 1221.109905
_symmetry_space_group_name_H-M "P -4 21 C"
_symmetry_group_IT_number 114
_symmetry_cell_setting 'tetragonal'
loop_
_space_group_symop_operation_xyz
x,y,z
y,-x,-z
-x,-y,z
-y,x,-z
1/2+x,1/2-y,1/2-z
1/2-x,1/2+y,1/2-z
1/2-y,1/2-x,1/2+z
1/2+y,1/2+x,1/2+z
loop_
_atom_site_type_symbol
_atom_site_label
_atom_site_fract_x
_atom_site_fract_y
_atom_site_fract_z
Si Si1 0.292148 0.347221 0.867407
Si Si2 0.072711 0.220775 0.013117
Si Si3 0.500000 0.500000 0.000000
Si Si4 0.539595 0.838619 0.285967
O O1 0.426778 0.381270 0.933929
O O2 0.260577 0.479665 0.798423
O O3 0.317685 0.206312 0.804444
O O4 0.158563 0.316187 0.937519
O O5 0.038067 0.297119 0.113527
O O6 0.921689 0.166586 0.971110
O O7 0.500000 0.000000 0.262197
#
# Coordination Sequence:
#
# PCOD9556437 Si02
#       4
#     8   8   2   8
#     4  11  27  43  74 102 147 187 243 296 362 433
#     4   9  21  44  70  99 138 184 233 292 354 423
#     4  12  28  48  72 104 150 192 240 308 364 428
#     4  11  26  43  70 105 141 188 240 293 360 431
#
# _framework density 21.292107000000001
#
# number of rings (size 3 to 8) (size 9 to 14) (size 15 to 20)
#    0.000    1.538    0.000    1.846   12.923    6.154 
#    0.000    0.000    0.000    0.000    0.000    0.000 
#    0.000    0.000    0.000    0.000    0.000    0.000 
#
# Total GULP energy -145524.696170 kJ/mol
# GULP energy per Si atom -5597.103699 kJ/mol
# Density = 2.124364 g / cm^3
# Si number density = 21.292107 Si / 1000 Ang^3
#
#
#
# Elastic Constant Matrix: (Units=GPa)
#
#
# Indices 1 2 3 4 5 6 
#
# 1 71.9420 15.9462 28.4641 0.0000 0.0000 0.0000
# 2 15.9462 71.9420 28.4641 0.0000 0.0000 0.0000
# 3 28.4641 28.4641 41.2846 0.0000 0.0000 0.0000
# 4 0.0000 0.0000 0.0000 26.5876 0.0000 0.0000
# 5 0.0000 0.0000 0.0000 0.0000 26.5876 0.0000
# 6 0.0000 0.0000 0.0000 0.0000 0.0000 21.6261
#
#
#
# Elastic Compliance Matrix: (Units=1/GPa)
#
#
# Indices 1 2 3 4 5 6 
#
# 1 0.019209 0.001351 -0.014175 0.000000 0.000000 0.000000
# 2 0.001351 0.019209 -0.014175 0.000000 0.000000 0.000000
# 3 -0.014175 -0.014175 0.043768 0.000000 0.000000 0.000000
# 4 0.000000 0.000000 0.000000 0.037611 0.000000 0.000000
# 5 0.000000 0.000000 0.000000 0.000000 0.037611 0.000000
# 6 0.000000 0.000000 0.000000 0.000000 0.000000 0.046240
#
#
# Mechanical properties :
#
#
# Convention : Reuss Voigt Hill
#
# Bulk Modulus (GPa) = 35.47673 36.76859 36.12266
# Shear Modulus (GPa) = 18.72342 22.44656 20.58499
#
# Velocity S-wave (km/s) = 2.96862 3.25040 3.11270
# Velocity P-wave (km/s) = 5.33370 5.60294 5.46998
#
# Compressibility (1/GPa) = 0.02818749
#
# Stress axis : x y z
#
# Youngs Moduli (GPa) = 52.05855 52.05855 22.84749
#
# Poissons Ratio (x) = -0.07031 0.32387
# Poissons Ratio (y) = -0.07031 0.32387
# Poissons Ratio (z) = 0.73794 0.73794
#
# Static dielectric constant tensor:
#      x y z
#    x 1.746280 0.000000 0.000000 
#    y 0.000000 1.746280 0.000000 
#    z 0.000000 0.000000 1.736340 
# 
# From -- ./inp_files/2360.got.cif
#   From: 2010.05.17/outbox.cif.g08.bks.cpg/sg114_2_cif.got.tgz:2360.got - 2010.05.20 11:04:54.
