data_PCOD9556141
_publ_section_title
;
Structure prediction by ZEFSAII (Michael W. Deem and Ramdas Pophale) SiO2 
 PCOD9556141
Probable space group: P -4 21 C
;
_chemical_formula_sum "Si O2"
_cell_formula_units_Z 48
_cell_length_a 8.360463
_cell_length_b 8.360463
_cell_length_c 29.655512
_cell_angle_alpha 90.000000
_cell_angle_beta 90.000000
_cell_angle_gamma 90.000000
_cell_volume 2072.841452
_symmetry_space_group_name_H-M "P -4 21 C"
_symmetry_group_IT_number 114
_symmetry_cell_setting 'tetragonal'
loop_
_space_group_symop_operation_xyz
x,y,z
y,-x,-z
-x,-y,z
-y,x,-z
1/2+x,1/2-y,1/2-z
1/2-x,1/2+y,1/2-z
1/2-y,1/2-x,1/2+z
1/2+y,1/2+x,1/2+z
loop_
_atom_site_type_symbol
_atom_site_label
_atom_site_fract_x
_atom_site_fract_y
_atom_site_fract_z
Si Si1 0.722786 0.898232 0.096717
Si Si2 0.039874 0.816331 0.648366
Si Si3 0.786192 0.206491 0.813255
Si Si4 0.668524 0.901221 0.776183
Si Si5 0.720091 0.635537 0.513618
Si Si6 0.624696 0.234512 0.068114
O O1 0.748675 0.913914 0.149641
O O2 0.551310 0.818071 0.084897
O O3 0.730714 0.079705 0.079859
O O4 0.842761 0.791371 0.067215
O O5 0.152163 0.736214 0.686086
O O6 0.117347 0.818123 0.598493
O O7 0.875023 0.722798 0.656679
O O8 0.000000 0.000000 0.659087
O O9 0.786190 0.325990 0.771414
O O10 0.794464 0.030657 0.793274
O O11 0.500000 0.000000 0.771741
O O12 0.714036 0.446869 0.503755
O O13 0.857556 0.730541 0.486194
#
# Coordination Sequence:
#
# PCOD9556141 Si02
#       6
#     8   8   8   8   8   8
#     4  10  22  39  64  91 126 172 211 267 331 396
#     4  11  22  41  64  93 127 167 212 269 325 391
#     4  11  23  41  64  92 129 168 219 265 330 395
#     4  10  25  42  65  97 131 172 220 277 332 393
#     4   9  20  40  63  91 125 159 210 265 323 395
#     4  10  22  39  63  91 129 164 212 267 328 391
#
# _framework density 23.156618999999999
#
# number of rings (size 3 to 8) (size 9 to 14) (size 15 to 20)
#    0.000    1.833    1.667    1.000    4.667    2.667 
#    0.000    3.333    0.000    0.000    0.000    0.000 
#    0.000    0.000    0.000    0.000    0.000    0.000 
#
# Total GULP energy -267946.944334 kJ/mol
# GULP energy per Si atom -5582.228007 kJ/mol
# Density = 2.310391 g / cm^3
# Si number density = 23.156619 Si / 1000 Ang^3
#
#
#
# Elastic Constant Matrix: (Units=GPa)
#
#
# Indices 1 2 3 4 5 6 
#
# 1 59.2009 5.4712 21.9888 0.0000 0.0000 0.0000
# 2 5.4712 59.2009 21.9888 0.0000 0.0000 0.0000
# 3 21.9888 21.9888 73.2775 0.0000 0.0000 0.0000
# 4 0.0000 0.0000 0.0000 24.1977 0.0000 0.0000
# 5 0.0000 0.0000 0.0000 0.0000 24.1977 0.0000
# 6 0.0000 0.0000 0.0000 0.0000 0.0000 19.9292
#
#
#
# Elastic Compliance Matrix: (Units=1/GPa)
#
#
# Indices 1 2 3 4 5 6 
#
# 1 0.019019 0.000407 -0.005829 0.000000 0.000000 0.000000
# 2 0.000407 0.019019 -0.005829 0.000000 0.000000 0.000000
# 3 -0.005829 -0.005829 0.017145 0.000000 0.000000 0.000000
# 4 0.000000 0.000000 0.000000 0.041326 0.000000 0.000000
# 5 0.000000 0.000000 0.000000 0.000000 0.041326 0.000000
# 6 0.000000 0.000000 0.000000 0.000000 0.000000 0.050178
#
#
# Mechanical properties :
#
#
# Convention : Reuss Voigt Hill
#
# Bulk Modulus (GPa) = 30.59897 32.28630 31.44263
# Shear Modulus (GPa) = 22.58251 23.14696 22.86474
#
# Velocity S-wave (km/s) = 3.12622 3.16505 3.14569
# Velocity P-wave (km/s) = 5.12578 5.22777 5.17702
#
# Compressibility (1/GPa) = 0.03268084
#
# Stress axis : x y z
#
# Youngs Moduli (GPa) = 52.57844 52.57844 58.32498
#
# Poissons Ratio (x) = -0.02143 0.34000
# Poissons Ratio (y) = -0.02143 0.34000
# Poissons Ratio (z) = 0.30650 0.30650
#
# Static dielectric constant tensor:
#      x y z
#    x 1.907710 0.000000 0.000000 
#    y 0.000000 1.907710 0.000000 
#    z 0.000000 0.000000 1.908140 
# 
# From -- ./inp_files/3915.got.cif
#   From: 2010.05.17/outbox.cif.g08.bks.cpg/sg114_2_cif.got.tgz:3915.got - 2010.05.20 11:04:54.
