data_PCOD9556468
_publ_section_title
;
Structure prediction by ZEFSAII (Michael W. Deem and Ramdas Pophale) SiO2 
 PCOD9556468
Probable space group: P -4 21 C
;
_chemical_formula_sum "Si O2"
_cell_formula_units_Z 32
_cell_length_a 9.895983
_cell_length_b 9.895983
_cell_length_c 13.105597
_cell_angle_alpha 90.000000
_cell_angle_beta 90.000000
_cell_angle_gamma 90.000000
_cell_volume 1283.437399
_symmetry_space_group_name_H-M "P -4 21 C"
_symmetry_group_IT_number 114
_symmetry_cell_setting 'tetragonal'
loop_
_space_group_symop_operation_xyz
x,y,z
y,-x,-z
-x,-y,z
-y,x,-z
1/2+x,1/2-y,1/2-z
1/2-x,1/2+y,1/2-z
1/2-y,1/2-x,1/2+z
1/2+y,1/2+x,1/2+z
loop_
_atom_site_type_symbol
_atom_site_label
_atom_site_fract_x
_atom_site_fract_y
_atom_site_fract_z
Si Si1 0.339254 0.824397 0.796089
Si Si2 0.200465 0.553441 0.043513
Si Si3 0.500000 0.000000 0.634892
Si Si4 0.000000 0.000000 0.500000
Si Si5 0.500000 0.500000 0.500000
Si Si6 0.421022 0.303247 0.335374
O O1 0.409966 0.831769 0.905118
O O2 0.434273 0.889572 0.709240
O O3 0.324264 0.670760 0.762935
O O4 0.210455 0.922241 0.804018
O O5 0.134176 0.665848 0.115264
O O6 0.120662 0.556061 0.936757
O O7 0.362971 0.565670 0.046777
O O8 0.407844 0.413312 0.424056
#
# Coordination Sequence:
#
# PCOD9556468 Si02
#       6
#     8   8   4   2   2   8
#     4  12  28  48  80 112 159 212 268 333 413 489
#     4  12  27  52  75 117 156 209 265 330 403 484
#     4  12  22  52  78 106 156 216 266 332 408 482
#     4  12  32  42  84 120 164 210 264 338 408 496
#     4  12  32  50  88 120 158 216 276 346 416 508
#     4  12  28  51  79 118 159 211 269 339 408 491
#
# _framework density 24.933043999999999
#
# number of rings (size 3 to 8) (size 9 to 14) (size 15 to 20)
#    0.000    0.000    5.000    3.000   14.000    0.000 
#    0.000    0.000    0.000    0.000    0.000    0.000 
#    0.000    0.000    0.000    0.000    0.000    0.000 
#
# Total GULP energy -179183.782550 kJ/mol
# GULP energy per Si atom -5599.493205 kJ/mol
# Density = 2.487630 g / cm^3
# Si number density = 24.933044 Si / 1000 Ang^3
#
#
#
# Elastic Constant Matrix: (Units=GPa)
#
#
# Indices 1 2 3 4 5 6 
#
# 1 70.7933 -6.5025 7.7112 0.0000 0.0000 0.0000
# 2 -6.5025 70.7933 7.7112 0.0000 0.0000 0.0000
# 3 7.7112 7.7112 84.4106 0.0000 0.0000 0.0000
# 4 0.0000 0.0000 0.0000 36.9994 0.0000 0.0000
# 5 0.0000 0.0000 0.0000 0.0000 36.9994 0.0000
# 6 0.0000 0.0000 0.0000 0.0000 0.0000 27.6272
#
#
#
# Elastic Compliance Matrix: (Units=1/GPa)
#
#
# Indices 1 2 3 4 5 6 
#
# 1 0.014420 0.001483 -0.001453 0.000000 0.000000 0.000000
# 2 0.001483 0.014420 -0.001453 0.000000 0.000000 0.000000
# 3 -0.001453 -0.001453 0.012112 0.000000 0.000000 0.000000
# 4 0.000000 0.000000 0.000000 0.027027 0.000000 0.000000
# 5 0.000000 0.000000 0.000000 0.000000 0.027027 0.000000
# 6 0.000000 0.000000 0.000000 0.000000 0.000000 0.036196
#
#
# Mechanical properties :
#
#
# Convention : Reuss Voigt Hill
#
# Bulk Modulus (GPa) = 26.24203 27.09301 26.66752
# Shear Modulus (GPa) = 34.07121 34.79702 34.43412
#
# Velocity S-wave (km/s) = 3.70064 3.73985 3.72030
# Velocity P-wave (km/s) = 5.36726 5.43494 5.40121
#
# Compressibility (1/GPa) = 0.03810681
#
# Stress axis : x y z
#
# Youngs Moduli (GPa) = 69.34777 69.34777 82.56078
#
# Poissons Ratio (x) = -0.10283 0.11994
# Poissons Ratio (y) = -0.10283 0.11994
# Poissons Ratio (z) = 0.10075 0.10075
#
# Static dielectric constant tensor:
#      x y z
#    x 2.027000 0.000000 0.000000 
#    y 0.000000 2.027000 0.000000 
#    z 0.000000 0.000000 1.900230 
# 
# From -- ./inp_files/1460.got.cif
#   From: 2010.05.17/outbox.cif.g08.bks.cpg/sg114_1_cif.got.tgz:1460.got - 2010.05.20 11:04:54.
