data_PCOD9556106
_publ_section_title
;
Structure prediction by ZEFSAII (Michael W. Deem and Ramdas Pophale) SiO2 
 PCOD9556106
Probable space group: P -4 21 C
;
_chemical_formula_sum "Si O2"
_cell_formula_units_Z 40
_cell_length_a 9.110344
_cell_length_b 9.110344
_cell_length_c 23.689788
_cell_angle_alpha 90.000000
_cell_angle_beta 90.000000
_cell_angle_gamma 90.000000
_cell_volume 1966.213737
_symmetry_space_group_name_H-M "P -4 21 C"
_symmetry_group_IT_number 114
_symmetry_cell_setting 'tetragonal'
loop_
_space_group_symop_operation_xyz
x,y,z
y,-x,-z
-x,-y,z
-y,x,-z
1/2+x,1/2-y,1/2-z
1/2-x,1/2+y,1/2-z
1/2-y,1/2-x,1/2+z
1/2+y,1/2+x,1/2+z
loop_
_atom_site_type_symbol
_atom_site_label
_atom_site_fract_x
_atom_site_fract_y
_atom_site_fract_z
Si Si1 0.640145 0.910670 0.800581
Si Si2 0.615924 0.708516 0.594610
Si Si3 0.205654 0.119166 0.918180
Si Si4 0.888808 0.217476 0.491540
Si Si5 0.123956 0.874618 0.774184
O O1 0.740144 0.870573 0.853859
O O2 0.604162 0.762448 0.767172
O O3 0.500000 0.000000 0.822009
O O4 0.728363 0.031431 0.763816
O O5 0.672860 0.552071 0.570797
O O6 0.445054 0.710590 0.577758
O O7 0.710600 0.837918 0.567466
O O8 0.627575 0.690364 0.662176
O O9 0.327108 0.176489 0.960364
O O10 0.060592 0.189336 0.498914
O O11 0.000000 0.000000 0.770680
#
# Coordination Sequence:
#
# PCOD9556106 Si02
#       5
#     8   8   8   8   8
#     4  11  24  39  69  98 134 177 217 278 334 390
#     4  10  21  43  68  89 126 171 220 267 314 400
#     4  10  22  42  65  94 122 171 220 257 323 397
#     4  11  26  43  61  96 133 164 212 277 337 388
#     4  11  22  45  64 100 137 175 228 273 328 406
#
# _framework density 20.343667
#
# number of rings (size 3 to 8) (size 9 to 14) (size 15 to 20)
#    0.000    1.400    4.000    2.400    5.600    5.600 
#    3.600    0.000    0.000    0.000    0.000    0.000 
#    0.000    0.000    0.000    0.000    0.000    0.000 
#
# Total GULP energy -223489.366297 kJ/mol
# GULP energy per Si atom -5587.234157 kJ/mol
# Density = 2.029736 g / cm^3
# Si number density = 20.343667 Si / 1000 Ang^3
#
#
#
# Elastic Constant Matrix: (Units=GPa)
#
#
# Indices 1 2 3 4 5 6 
#
# 1 55.9358 27.1123 21.3194 0.0000 0.0000 0.0000
# 2 27.1123 55.9358 21.3194 0.0000 0.0000 0.0000
# 3 21.3194 21.3194 62.8516 0.0000 0.0000 0.0000
# 4 0.0000 0.0000 0.0000 17.2736 0.0000 0.0000
# 5 0.0000 0.0000 0.0000 0.0000 17.2736 0.0000
# 6 0.0000 0.0000 0.0000 0.0000 0.0000 38.6282
#
#
#
# Elastic Compliance Matrix: (Units=1/GPa)
#
#
# Indices 1 2 3 4 5 6 
#
# 1 0.024637 -0.010057 -0.004946 0.000000 0.000000 0.000000
# 2 -0.010057 0.024637 -0.004946 0.000000 0.000000 0.000000
# 3 -0.004946 -0.004946 0.019266 0.000000 0.000000 0.000000
# 4 0.000000 0.000000 0.000000 0.057892 0.000000 0.000000
# 5 0.000000 0.000000 0.000000 0.000000 0.057892 0.000000
# 6 0.000000 0.000000 0.000000 0.000000 0.000000 0.025888
#
#
# Mechanical properties :
#
#
# Convention : Reuss Voigt Hill
#
# Bulk Modulus (GPa) = 34.91166 34.91393 34.91280
# Shear Modulus (GPa) = 19.25627 21.63322 20.44474
#
# Velocity S-wave (km/s) = 3.07994 3.26450 3.17356
# Velocity P-wave (km/s) = 5.46317 5.60434 5.53421
#
# Compressibility (1/GPa) = 0.02864372
#
# Stress axis : x y z
#
# Youngs Moduli (GPa) = 40.58906 40.58906 51.90567
#
# Poissons Ratio (x) = 0.40819 0.25671
# Poissons Ratio (y) = 0.40819 0.25671
# Poissons Ratio (z) = 0.20074 0.20074
#
# Static dielectric constant tensor:
#      x y z
#    x 1.734350 0.000000 0.000000 
#    y 0.000000 1.734350 0.000000 
#    z 0.000000 0.000000 1.724250 
# 
# From -- ./inp_files/3368.got.cif
#   From: 2010.05.17/outbox.cif.g08.bks.cpg/sg114_2_cif.got.tgz:3368.got - 2010.05.20 11:04:54.
