data_PCOD9556673
_publ_section_title
;
Structure prediction by ZEFSAII (Michael W. Deem and Ramdas Pophale) SiO2 
 PCOD9556673
Probable space group: P -4 M 2
;
_chemical_formula_sum "Si O2"
_cell_formula_units_Z 60
_cell_length_a 13.426543
_cell_length_b 13.426543
_cell_length_c 19.542922
_cell_angle_alpha 90.000000
_cell_angle_beta 90.000000
_cell_angle_gamma 90.000000
_cell_volume 3523.042747
_symmetry_space_group_name_H-M "P -4 M 2"
_symmetry_group_IT_number 115
_symmetry_cell_setting 'tetragonal'
loop_
_space_group_symop_operation_xyz
x,y,z
y,-x,-z
-x,-y,z
-y,x,-z
y,x,-z
-y,-x,-z
-x,y,z
x,-y,z
loop_
_atom_site_type_symbol
_atom_site_label
_atom_site_fract_x
_atom_site_fract_y
_atom_site_fract_z
Si Si1 0.614041 0.880356 0.072621
Si Si2 0.239326 0.252642 0.823937
Si Si3 0.117587 0.115885 0.281837
Si Si4 0.383826 0.616766 0.261498
Si Si5 0.197221 0.117381 0.571562
Si Si6 0.610466 0.771686 0.615070
Si Si7 0.384038 0.119020 0.913663
Si Si8 0.392557 0.607444 0.500000
O O1 0.500000 0.849325 0.089352
O O2 0.694812 0.835390 0.123307
O O3 0.616558 0.000000 0.076292
O O4 0.633132 0.853250 0.993234
O O5 0.182173 0.190714 0.764685
O O6 0.308100 0.340909 0.794238
O O7 0.310770 0.177072 0.864250
O O8 0.141124 0.127691 0.362882
O O9 0.000000 0.144321 0.273371
O O10 0.127468 0.000000 0.262712
O O11 0.500000 0.636756 0.278484
O O12 0.378077 0.500000 0.241151
O O13 0.305630 0.630006 0.323576
O O14 0.171444 0.171444 0.500000
O O15 0.305304 0.148170 0.600442
O O16 0.190382 0.000000 0.558220
O O17 0.500000 0.815095 0.625050
O O18 0.609627 0.699411 0.549843
O O19 0.500000 0.140586 0.897753
O O20 0.370333 0.000000 0.907597
O O21 0.500000 0.609907 0.462633
#
# Coordination Sequence:
#
# PCOD9556673 Si02
#       8
#     8   8   8   8   8   8   8   4
#     4   9  19  35  53  76 107 144 184 221 262 320
#     4  12  19  32  56  83 106 138 179 227 278 317
#     4  10  22  38  55  79 108 138 178 229 277 322
#     4  10  21  35  51  76 110 143 175 214 264 325
#     4  11  22  39  60  81 105 142 186 222 265 324
#     4  10  19  34  54  78 107 138 171 213 264 314
#     4   9  19  35  53  76 109 145 181 220 264 323
#     4   9  16  28  52  78  99 130 172 208 243 304
#
# _framework density 17.030733000000001
#
# number of rings (size 3 to 8) (size 9 to 14) (size 15 to 20)
#    0.000    1.933    2.000    3.600    0.000    2.533 
#    0.000    0.000    0.000    0.000    0.000   11.200 
#    0.000    0.000    0.000    0.000    0.000    0.000 
#
# Total GULP energy -334380.031066 kJ/mol
# GULP energy per Si atom -5573.000518 kJ/mol
# Density = 1.699197 g / cm^3
# Si number density = 17.030733 Si / 1000 Ang^3
#
#
#
# Elastic Constant Matrix: (Units=GPa)
#
#
# Indices 1 2 3 4 5 6 
#
# 1 63.3694 34.3292 40.9754 0.0000 0.0000 0.0000
# 2 34.3292 63.3692 40.9755 0.0000 0.0000 0.0000
# 3 40.9754 40.9755 76.8775 0.0000 0.0000 0.0000
# 4 0.0000 0.0000 0.0000 23.9250 0.0000 0.0000
# 5 0.0000 0.0000 0.0000 0.0000 23.9245 0.0000
# 6 0.0000 0.0000 0.0000 0.0000 0.0000 28.6831
#
#
#
# Elastic Compliance Matrix: (Units=1/GPa)
#
#
# Indices 1 2 3 4 5 6 
#
# 1 0.026473 -0.007962 -0.009867 0.000000 0.000000 0.000000
# 2 -0.007962 0.026474 -0.009867 0.000000 0.000000 0.000000
# 3 -0.009867 -0.009867 0.023526 0.000000 0.000000 0.000000
# 4 0.000000 0.000000 0.000000 0.041797 0.000000 0.000000
# 5 0.000000 0.000000 0.000000 0.000000 0.041798 0.000000
# 6 0.000000 0.000000 0.000000 0.000000 0.000000 0.034864
#
#
# Mechanical properties :
#
#
# Convention : Reuss Voigt Hill
#
# Bulk Modulus (GPa) = 47.43304 48.46404 47.94854
# Shear Modulus (GPa) = 19.42880 21.12892 20.27886
#
# Velocity S-wave (km/s) = 3.38125 3.52609 3.45443
# Velocity P-wave (km/s) = 6.56930 6.71538 6.64274
#
# Compressibility (1/GPa) = 0.02108235
#
# Stress axis : x y z
#
# Youngs Moduli (GPa) = 37.77365 37.77340 42.50676
#
# Poissons Ratio (x) = 0.30074 0.41940
# Poissons Ratio (y) = 0.30074 0.41941
# Poissons Ratio (z) = 0.37270 0.37271
#
# Static dielectric constant tensor:
#      x y z
#    x 1.574330 0.000000 0.000000 
#    y 0.000000 1.574330 0.000000 
#    z 0.000000 0.000000 1.577060 
# 
# From -- ./inp_files/4993.got.cif
#   From: 2010.05.17/outbox.cif.g08.bks.cpg/sg115_3_cif.got.tgz:4993.got - 2010.05.20 11:07:42.
