data_PCOD9556586
_publ_section_title
;
Structure prediction by ZEFSAII (Michael W. Deem and Ramdas Pophale) SiO2 
 PCOD9556586
Probable space group: P -4 M 2
;
_chemical_formula_sum "Si O2"
_cell_formula_units_Z 48
_cell_length_a 14.184832
_cell_length_b 14.184832
_cell_length_c 12.875567
_cell_angle_alpha 90.000000
_cell_angle_beta 90.000000
_cell_angle_gamma 90.000000
_cell_volume 2590.685869
_symmetry_space_group_name_H-M "P -4 M 2"
_symmetry_group_IT_number 115
_symmetry_cell_setting 'tetragonal'
loop_
_space_group_symop_operation_xyz
x,y,z
y,-x,-z
-x,-y,z
-y,x,-z
y,x,-z
-y,-x,-z
-x,y,z
x,-y,z
loop_
_atom_site_type_symbol
_atom_site_label
_atom_site_fract_x
_atom_site_fract_y
_atom_site_fract_z
Si Si1 0.385634 0.893222 0.315257
Si Si2 0.219415 0.609060 0.103182
Si Si3 0.111585 0.272245 0.258570
Si Si4 0.609409 0.884899 0.547306
Si Si5 0.747563 0.610280 0.865421
Si Si6 0.107852 0.115247 0.884674
O O1 0.500000 0.898725 0.318980
O O2 0.358495 0.859911 0.430838
O O3 0.364115 0.821265 0.223914
O O4 0.350827 0.000000 0.297217
O O5 0.227712 0.500000 0.128618
O O6 0.135151 0.654855 0.167128
O O7 0.315613 0.662615 0.134141
O O8 0.206662 0.618384 0.979598
O O9 0.149578 0.318914 0.364104
O O10 0.146067 0.173446 0.210361
O O11 0.000000 0.262038 0.272908
O O12 0.500000 0.855104 0.565066
O O13 0.607834 0.000000 0.549937
O O14 0.719041 0.500000 0.852944
O O15 0.000000 0.145798 0.872402
O O16 0.108035 0.000000 0.887694
O O17 0.143897 0.143897 0.000000
#
# Coordination Sequence:
#
# PCOD9556586 Si02
#       6
#     8   8   8   8   8   8
#     4   8  14  28  52  78 103 132 166 211 261 304
#     4  10  21  34  49  73 104 133 166 208 253 307
#     4  10  19  30  49  76 105 135 165 205 256 307
#     4   8  14  26  46  74 106 136 167 202 249 309
#     4   9  19  35  52  71  99 134 173 210 247 302
#     4   8  15  28  45  67  99 139 177 208 241 290
#
# _framework density 18.527912000000001
#
# number of rings (size 3 to 8) (size 9 to 14) (size 15 to 20)
#    0.000    3.167    0.000    2.000    2.333    2.000 
#    0.000    5.000    0.000    0.000    0.000    1.167 
#    0.000    5.333    0.000    0.667    0.000    0.000 
#
# Total GULP energy -267449.852639 kJ/mol
# GULP energy per Si atom -5571.871930 kJ/mol
# Density = 1.848574 g / cm^3
# Si number density = 18.527912 Si / 1000 Ang^3
#
#
#
# Elastic Constant Matrix: (Units=GPa)
#
#
# Indices 1 2 3 4 5 6 
#
# 1 49.9972 7.1802 42.8750 0.0000 0.0000 0.0000
# 2 7.1802 49.9972 42.8750 0.0000 0.0000 0.0000
# 3 42.8750 42.8750 112.4190 0.0000 0.0000 0.0000
# 4 0.0000 0.0000 0.0000 21.2961 0.0000 0.0000
# 5 0.0000 0.0000 0.0000 0.0000 21.2961 0.0000
# 6 0.0000 0.0000 0.0000 0.0000 0.0000 16.6937
#
#
#
# Elastic Compliance Matrix: (Units=1/GPa)
#
#
# Indices 1 2 3 4 5 6 
#
# 1 0.032108 0.008753 -0.015584 0.000000 0.000000 0.000000
# 2 0.008753 0.032108 -0.015584 0.000000 0.000000 0.000000
# 3 -0.015584 -0.015584 0.020782 0.000000 0.000000 0.000000
# 4 0.000000 0.000000 0.000000 0.046957 0.000000 0.000000
# 5 0.000000 0.000000 0.000000 0.000000 0.046957 0.000000
# 6 0.000000 0.000000 0.000000 0.000000 0.000000 0.059903
#
#
# Mechanical properties :
#
#
# Convention : Reuss Voigt Hill
#
# Bulk Modulus (GPa) = 24.89517 44.25269 34.57393
# Shear Modulus (GPa) = 16.83315 19.82272 18.32793
#
# Velocity S-wave (km/s) = 3.01745 3.27446 3.14858
# Velocity P-wave (km/s) = 5.06021 6.18323 5.64969
#
# Compressibility (1/GPa) = 0.04016844
#
# Stress axis : x y z
#
# Youngs Moduli (GPa) = 31.14510 31.14510 48.11856
#
# Poissons Ratio (x) = -0.27260 0.74986
# Poissons Ratio (y) = -0.27260 0.74986
# Poissons Ratio (z) = 0.48535 0.48535
#
# Static dielectric constant tensor:
#      x y z
#    x 1.661170 0.000000 0.000000 
#    y 0.000000 1.661170 0.000000 
#    z 0.000000 0.000000 1.656940 
# 
# From -- ./inp_files/2967.got.cif
#   From: 2010.05.17/outbox.cif.g08.bks.cpg/sg115_2_cif.got.tgz:2967.got - 2010.05.20 11:07:42.
