data_PCOD9556463
_publ_section_title
;
Structure prediction by ZEFSAII (Michael W. Deem and Ramdas Pophale) SiO2 
 PCOD9556463
Probable space group: P -4 21 C
;
_chemical_formula_sum "Si O2"
_cell_formula_units_Z 48
_cell_length_a 13.342350
_cell_length_b 13.342350
_cell_length_c 13.079381
_cell_angle_alpha 90.000000
_cell_angle_beta 90.000000
_cell_angle_gamma 90.000000
_cell_volume 2328.369217
_symmetry_space_group_name_H-M "P -4 21 C"
_symmetry_group_IT_number 114
_symmetry_cell_setting 'tetragonal'
loop_
_space_group_symop_operation_xyz
x,y,z
y,-x,-z
-x,-y,z
-y,x,-z
1/2+x,1/2-y,1/2-z
1/2-x,1/2+y,1/2-z
1/2-y,1/2-x,1/2+z
1/2+y,1/2+x,1/2+z
loop_
_atom_site_type_symbol
_atom_site_label
_atom_site_fract_x
_atom_site_fract_y
_atom_site_fract_z
Si Si1 0.500000 0.000000 0.269365
Si Si2 0.141281 0.862863 0.355633
Si Si3 0.522897 0.835888 0.105227
Si Si4 0.156455 0.331274 0.029001
Si Si5 0.500000 0.500000 0.500000
Si Si6 0.363218 0.070906 0.919739
Si Si7 0.144149 0.144857 0.877747
Si Si8 0.000000 0.000000 0.500000
O O1 0.517121 0.092290 0.193905
O O2 0.412961 0.043936 0.342497
O O3 0.068901 0.766351 0.354807
O O4 0.247759 0.821669 0.397723
O O5 0.156870 0.894678 0.237927
O O6 0.084152 0.944995 0.427703
O O7 0.429041 0.815078 0.034565
O O8 0.603349 0.893091 0.032188
O O9 0.048621 0.347103 0.080765
O O10 0.137008 0.241391 0.950027
O O11 0.582156 0.444161 0.569145
O O12 0.262522 0.120807 0.880779
#
# Coordination Sequence:
#
# PCOD9556463 Si02
#       8
#     4   8   8   8   2   8   8   2
#     4  12  22  40  72  96 136 178 228 290 348 416
#     4  12  27  44  72 104 140 193 237 287 364 433
#     4  12  24  43  68 102 137 176 231 297 344 408
#     4  12  25  44  68 103 142 176 236 300 352 427
#     4  12  26  52  68 102 156 184 234 308 352 442
#     4  12  24  43  68 102 137 176 231 297 344 408
#     4  12  27  44  72 104 140 193 237 287 364 433
#     4  12  26  52  68 102 156 184 234 308 352 442
#
# _framework density 20.615288
#
# number of rings (size 3 to 8) (size 9 to 14) (size 15 to 20)
#    0.000    0.000   10.000    0.500    2.333    0.000 
#    0.000    3.333    0.000    0.000    0.000    0.000 
#    0.000    0.000    0.000    0.000    0.000    0.000 
#
# Total GULP energy -268017.406630 kJ/mol
# GULP energy per Si atom -5583.695971 kJ/mol
# Density = 2.056837 g / cm^3
# Si number density = 20.615288 Si / 1000 Ang^3
#
#
#
# Elastic Constant Matrix: (Units=GPa)
#
#
# Indices 1 2 3 4 5 6 
#
# 1 57.8752 -2.1359 15.9214 0.0000 0.0000 0.0000
# 2 -2.1359 57.8752 15.9214 0.0000 0.0000 0.0000
# 3 15.9214 15.9214 124.0786 0.0000 0.0000 0.0000
# 4 0.0000 0.0000 0.0000 12.3338 0.0000 0.0000
# 5 0.0000 0.0000 0.0000 0.0000 12.3338 0.0000
# 6 0.0000 0.0000 0.0000 0.0000 0.0000 26.4248
#
#
#
# Elastic Compliance Matrix: (Units=1/GPa)
#
#
# Indices 1 2 3 4 5 6 
#
# 1 0.018012 0.001348 -0.002484 0.000000 0.000000 0.000000
# 2 0.001348 0.018012 -0.002484 0.000000 0.000000 0.000000
# 3 -0.002484 -0.002484 0.008697 0.000000 0.000000 0.000000
# 4 0.000000 0.000000 0.000000 0.081078 0.000000 0.000000
# 5 0.000000 0.000000 0.000000 0.000000 0.081078 0.000000
# 6 0.000000 0.000000 0.000000 0.000000 0.000000 0.037843
#
#
# Mechanical properties :
#
#
# Convention : Reuss Voigt Hill
#
# Bulk Modulus (GPa) = 26.68101 33.24919 29.96510
# Shear Modulus (GPa) = 18.90694 24.22664 21.56679
#
# Velocity S-wave (km/s) = 3.03170 3.43181 3.23794
# Velocity P-wave (km/s) = 5.02249 5.64504 5.34284
#
# Compressibility (1/GPa) = 0.03747984
#
# Stress axis : x y z
#
# Youngs Moduli (GPa) = 55.51944 55.51944 114.98304
#
# Poissons Ratio (x) = -0.07485 0.28564
# Poissons Ratio (y) = -0.07485 0.28564
# Poissons Ratio (z) = 0.13792 0.13792
#
# Static dielectric constant tensor:
#      x y z
#    x 1.793820 0.000000 0.000000 
#    y 0.000000 1.793820 0.000000 
#    z 0.000000 0.000000 1.795630 
# 
# From -- ./inp_files/1735.got.cif
#   From: 2010.05.17/outbox.cif.g08.bks.cpg/sg114_1_cif.got.tgz:1735.got - 2010.05.20 11:04:54.
