data_PCOD9556866
_publ_section_title
;
Structure prediction by ZEFSAII (Michael W. Deem and Ramdas Pophale) SiO2 
 PCOD9556866
Probable space group: P -4 M 2
;
_chemical_formula_sum "Si O2"
_cell_formula_units_Z 64
_cell_length_a 13.301769
_cell_length_b 13.301769
_cell_length_c 22.124302
_cell_angle_alpha 90.000000
_cell_angle_beta 90.000000
_cell_angle_gamma 90.000000
_cell_volume 3914.608918
_symmetry_space_group_name_H-M "P -4 M 2"
_symmetry_group_IT_number 115
_symmetry_cell_setting 'tetragonal'
loop_
_space_group_symop_operation_xyz
x,y,z
y,-x,-z
-x,-y,z
-y,x,-z
y,x,-z
-y,-x,-z
-x,y,z
x,-y,z
loop_
_atom_site_type_symbol
_atom_site_label
_atom_site_fract_x
_atom_site_fract_y
_atom_site_fract_z
Si Si1 0.381854 0.714865 0.810035
Si Si2 0.378090 0.121910 0.495028
Si Si3 0.118147 0.214859 0.189966
Si Si4 0.114221 0.120400 0.684595
Si Si5 0.614221 0.620400 0.315404
Si Si6 0.784366 0.116058 0.944816
Si Si7 0.715638 0.616058 0.055183
Si Si8 0.244532 0.255469 0.403963
O O1 0.500000 0.739692 0.805198
O O2 0.313669 0.813671 0.805157
O O3 0.356463 0.643433 0.754014
O O4 0.365638 0.671360 0.877513
O O5 0.500000 0.138072 0.493701
O O6 0.318925 0.181075 0.441487
O O7 0.325355 0.174645 0.553183
O O8 0.361927 0.000000 0.493701
O O9 0.143539 0.143429 0.245986
O O10 0.134366 0.171355 0.122487
O O11 0.000000 0.239683 0.194802
O O12 0.188462 0.174339 0.638797
O O13 0.000000 0.151254 0.672628
O O14 0.121338 0.000000 0.677449
O O15 0.500000 0.651256 0.327369
O O16 0.621336 0.500000 0.322551
O O17 0.688460 0.674338 0.361203
O O18 0.687876 0.187874 0.950250
O O19 0.755369 0.000000 0.947983
O O20 0.856707 0.143294 0.000000
O O21 0.744636 0.500000 0.052014
O O22 0.643296 0.643296 0.000000
#
# Coordination Sequence:
#
# PCOD9556866 Si02
#       8
#     8   8   8   8   8   8   8   8
#     4   9  17  31  49  72 102 132 164 208 257 302
#     4  10  22  38  56  80 106 132 168 210 250 294
#     4   9  17  31  49  72 102 132 164 208 257 302
#     4  10  20  33  51  77 105 134 170 207 248 299
#     4  10  20  33  51  77 105 134 170 207 248 299
#     4   9  18  31  48  71  99 132 172 212 254 303
#     4   9  18  31  48  71  99 132 172 212 254 303
#     4  11  20  36  58  76 103 140 168 202 251 298
#
# _framework density 16.349014
#
# number of rings (size 3 to 8) (size 9 to 14) (size 15 to 20)
#    0.000    2.375    1.250    1.500    0.000    1.750 
#    0.000    5.000    0.000    6.000    0.000    0.000 
#    0.000    0.000    0.000    0.000    0.000    0.000 
#
# Total GULP energy -356442.665788 kJ/mol
# GULP energy per Si atom -5569.416653 kJ/mol
# Density = 1.631180 g / cm^3
# Si number density = 16.349014 Si / 1000 Ang^3
#
#
#
# Elastic Constant Matrix: (Units=GPa)
#
#
# Indices 1 2 3 4 5 6 
#
# 1 58.8837 30.4770 43.8964 0.0000 0.0000 0.0000
# 2 30.4770 58.8843 43.8966 0.0000 0.0000 0.0000
# 3 43.8964 43.8966 115.0448 0.0000 0.0000 0.0000
# 4 0.0000 0.0000 0.0000 25.1050 0.0000 0.0000
# 5 0.0000 0.0000 0.0000 0.0000 25.1050 0.0000
# 6 0.0000 0.0000 0.0000 0.0000 0.0000 21.4225
#
#
#
# Elastic Compliance Matrix: (Units=1/GPa)
#
#
# Indices 1 2 3 4 5 6 
#
# 1 0.026552 -0.008651 -0.006830 0.000000 0.000000 0.000000
# 2 -0.008651 0.026552 -0.006830 0.000000 0.000000 0.000000
# 3 -0.006830 -0.006830 0.013905 0.000000 0.000000 0.000000
# 4 0.000000 0.000000 0.000000 0.039833 0.000000 0.000000
# 5 0.000000 0.000000 0.000000 0.000000 0.039833 0.000000
# 6 0.000000 0.000000 0.000000 0.000000 0.000000 0.046680
#
#
# Mechanical properties :
#
#
# Convention : Reuss Voigt Hill
#
# Bulk Modulus (GPa) = 44.67192 52.15030 48.41111
# Shear Modulus (GPa) = 20.37172 21.96268 21.16720
#
# Velocity S-wave (km/s) = 3.53378 3.66917 3.60211
# Velocity P-wave (km/s) = 6.63576 7.06525 6.85387
#
# Compressibility (1/GPa) = 0.02238543
#
# Stress axis : x y z
#
# Youngs Moduli (GPa) = 37.66203 37.66238 71.91844
#
# Poissons Ratio (x) = 0.32581 0.49123
# Poissons Ratio (y) = 0.32580 0.49123
# Poissons Ratio (z) = 0.25724 0.25725
#
# Static dielectric constant tensor:
#      x y z
#    x 1.519500 0.000000 0.000000 
#    y 0.000000 1.519500 0.000000 
#    z 0.000000 0.000000 1.573950 
# 
# From -- ./inp_files/5400.got.cif
#   From: 2010.05.17/outbox.cif.g08.bks.cpg/sg115_3_cif.got.tgz:5400.got - 2010.05.20 11:07:42.
