data_PCOD9556368
_publ_section_title
;
Structure prediction by ZEFSAII (Michael W. Deem and Ramdas Pophale) SiO2 
 PCOD9556368
Probable space group: P -4 21 C
;
_chemical_formula_sum "Si O2"
_cell_formula_units_Z 48
_cell_length_a 8.928998
_cell_length_b 8.928998
_cell_length_c 29.734974
_cell_angle_alpha 90.000000
_cell_angle_beta 90.000000
_cell_angle_gamma 90.000000
_cell_volume 2370.680429
_symmetry_space_group_name_H-M "P -4 21 C"
_symmetry_group_IT_number 114
_symmetry_cell_setting 'tetragonal'
loop_
_space_group_symop_operation_xyz
x,y,z
y,-x,-z
-x,-y,z
-y,x,-z
1/2+x,1/2-y,1/2-z
1/2-x,1/2+y,1/2-z
1/2-y,1/2-x,1/2+z
1/2+y,1/2+x,1/2+z
loop_
_atom_site_type_symbol
_atom_site_label
_atom_site_fract_x
_atom_site_fract_y
_atom_site_fract_z
Si Si1 0.401558 0.765178 0.288185
Si Si2 0.092037 0.795555 0.517561
Si Si3 0.238117 0.396561 0.610193
Si Si4 0.903063 0.267546 0.712688
Si Si5 0.775882 0.397008 0.112199
Si Si6 0.799970 0.910236 0.021371
O O1 0.372509 0.705671 0.338764
O O2 0.575642 0.811580 0.283653
O O3 0.345573 0.652395 0.250365
O O4 0.311696 0.922435 0.283333
O O5 0.136892 0.822319 0.568965
O O6 0.139731 0.637196 0.497540
O O7 0.917639 0.825061 0.512587
O O8 0.201214 0.573364 0.606896
O O9 0.346496 0.338834 0.570710
O O10 0.072211 0.322917 0.608032
O O11 0.875500 0.210978 0.661778
O O12 0.916204 0.831415 0.986435
#
# Coordination Sequence:
#
# PCOD9556368 Si02
#       6
#     8   8   8   8   8   8
#     4   9  19  37  59  84 113 147 189 232 279 339
#     4  11  22  36  56  83 114 148 190 234 272 332
#     4   9  17  35  60  79 107 153 190 224 279 338
#     4   9  19  37  59  84 113 147 189 232 279 339
#     4   9  17  35  60  79 107 153 190 224 279 338
#     4  11  22  36  56  83 114 148 190 234 272 332
#
# _framework density 20.247350000000001
#
# number of rings (size 3 to 8) (size 9 to 14) (size 15 to 20)
#    0.000    2.333    3.333    2.000    0.000    1.333 
#    6.000    0.000    0.000    0.000    0.000    0.000 
#    0.000    0.000    0.000    0.000    0.000    0.000 
#
# Total GULP energy -267783.563065 kJ/mol
# GULP energy per Si atom -5578.824231 kJ/mol
# Density = 2.020127 g / cm^3
# Si number density = 20.247350 Si / 1000 Ang^3
#
#
#
# Elastic Constant Matrix: (Units=GPa)
#
#
# Indices 1 2 3 4 5 6 
#
# 1 12.7837 16.8168 28.4112 0.0000 0.0000 0.0000
# 2 16.8168 12.7837 28.4112 0.0000 0.0000 0.0000
# 3 28.4112 28.4112 187.2651 0.0000 0.0000 0.0000
# 4 0.0000 0.0000 0.0000 30.8019 0.0000 0.0000
# 5 0.0000 0.0000 0.0000 0.0000 30.8019 0.0000
# 6 0.0000 0.0000 0.0000 0.0000 0.0000 28.1172
#
#
#
# Elastic Compliance Matrix: (Units=1/GPa)
#
#
# Indices 1 2 3 4 5 6 
#
# 1 -0.100142 0.147807 -0.007232 0.000000 0.000000 0.000000
# 2 0.147807 -0.100142 -0.007232 0.000000 0.000000 0.000000
# 3 -0.007232 -0.007232 0.007534 0.000000 0.000000 0.000000
# 4 0.000000 0.000000 0.000000 0.032466 0.000000 0.000000
# 5 0.000000 0.000000 0.000000 0.000000 0.032466 0.000000
# 6 0.000000 0.000000 0.000000 0.000000 0.000000 0.035565
#
#
# Mechanical properties :
#
#
# Convention : Reuss Voigt Hill
#
# Bulk Modulus (GPa) = 13.52473 40.01234 26.76854
# Shear Modulus (GPa) = -14.95690 27.22373 6.13341
#
# Velocity S-wave (km/s) = -2.72087 3.67080 1.74236
# Velocity P-wave (km/s) = 1.78230 6.14581 4.15899
#
# Compressibility (1/GPa) = 0.07393862
#
# Stress axis : x y z
#
# Youngs Moduli (GPa) = -9.98585 -9.98585 132.72553
#
# Poissons Ratio (x) = 1.47598 0.95982
# Poissons Ratio (y) = 1.47598 0.95982
# Poissons Ratio (z) = -0.07221 -0.07221
#
# Static dielectric constant tensor:
#      x y z
#    x 1.721400 0.000000 0.000000 
#    y 0.000000 1.721400 0.000000 
#    z 0.000000 0.000000 1.720790 
# 
# From -- ./inp_files/3966.got.cif
#   From: 2010.05.17/outbox.cif.g08.bks.cpg/sg114_2_cif.got.tgz:3966.got - 2010.05.20 11:04:54.
