data_PCOD9556614
_publ_section_title
;
Structure prediction by ZEFSAII (Michael W. Deem and Ramdas Pophale) SiO2 
 PCOD9556614
Probable space group: P -4 M 2
;
_chemical_formula_sum "Si O2"
_cell_formula_units_Z 33
_cell_length_a 8.036233
_cell_length_b 8.036233
_cell_length_c 24.791514
_cell_angle_alpha 90.000000
_cell_angle_beta 90.000000
_cell_angle_gamma 90.000000
_cell_volume 1601.061778
_symmetry_space_group_name_H-M "P -4 M 2"
_symmetry_group_IT_number 115
_symmetry_cell_setting 'tetragonal'
loop_
_space_group_symop_operation_xyz
x,y,z
y,-x,-z
-x,-y,z
-y,x,-z
y,x,-z
-y,-x,-z
-x,y,z
x,-y,z
loop_
_atom_site_type_symbol
_atom_site_label
_atom_site_fract_x
_atom_site_fract_y
_atom_site_fract_z
Si Si1 0.807913 0.802668 0.729896
Si Si2 0.802213 0.197788 0.500000
Si Si3 0.680285 0.697655 0.843930
Si Si4 0.697252 0.191485 0.384787
Si Si5 0.000000 0.295125 0.914640
Si Si6 0.000000 0.000000 0.000000
O O1 0.713555 0.730411 0.780965
O O2 0.734285 0.763617 0.670913
O O3 0.000000 0.738633 0.730973
O O4 0.812733 0.000000 0.736263
O O5 0.738504 0.267375 0.443028
O O6 0.000000 0.228636 0.500111
O O7 0.500000 0.769547 0.859345
O O8 0.673236 0.500000 0.851349
O O9 0.837565 0.751154 0.879186
O O10 0.500000 0.184267 0.380298
O O11 0.765038 0.000000 0.386053
O O12 0.000000 0.500000 0.924274
O O13 0.000000 0.171215 0.965290
#
# Coordination Sequence:
#
# PCOD9556614 Si02
#       6
#     8   4   8   8   4   1
#     4  10  19  31  53  84 117 150 194 248 306 367
#     4   9  16  28  46  67  94 130 184 241 294 358
#     4  10  21  38  62  91 126 168 207 249 309 369
#     4   9  17  29  47  71 100 140 186 236 300 367
#     4  10  24  46  68  98 138 174 211 265 310 353
#     4  12  28  44  76 104 132 172 232 250 300 372
#
# _framework density 20.611321
#
# number of rings (size 3 to 8) (size 9 to 14) (size 15 to 20)
#    0.000    2.303    1.212    1.455    1.697    5.333 
#    0.000    1.212    0.000    4.727    0.000    0.000 
#    0.000    0.000    0.000    0.000    0.000    0.000 
#
# Total GULP energy -184004.472922 kJ/mol
# GULP energy per Si atom -5575.893119 kJ/mol
# Density = 2.056441 g / cm^3
# Si number density = 20.611321 Si / 1000 Ang^3
#
#
#
# Elastic Constant Matrix: (Units=GPa)
#
#
# Indices 1 2 3 4 5 6 
#
# 1 30.7809 53.7682 41.2927 0.0000 0.0000 0.0000
# 2 53.7682 30.7793 41.2929 0.0000 0.0000 0.0000
# 3 41.2927 41.2929 133.8811 0.0000 0.0000 0.0000
# 4 0.0000 0.0000 0.0000 143.1199 0.0000 0.0000
# 5 0.0000 0.0000 0.0000 0.0000 143.0928 0.0000
# 6 0.0000 0.0000 0.0000 0.0000 0.0000 2.8400
#
#
#
# Elastic Compliance Matrix: (Units=1/GPa)
#
#
# Indices 1 2 3 4 5 6 
#
# 1 -0.013286 0.030214 -0.005221 0.000000 0.000000 0.000000
# 2 0.030214 -0.013287 -0.005221 0.000000 0.000000 0.000000
# 3 -0.005221 -0.005221 0.010690 0.000000 0.000000 0.000000
# 4 0.000000 0.000000 0.000000 0.006987 0.000000 0.000000
# 5 0.000000 0.000000 0.000000 0.000000 0.006988 0.000000
# 6 0.000000 0.000000 0.000000 0.000000 0.000000 0.352113
#
#
# Mechanical properties :
#
#
# Convention : Reuss Voigt Hill
#
# Bulk Modulus (GPa) = 42.26387 52.01656 47.14022
# Shear Modulus (GPa) = 15.69625 61.74969 38.72297
#
# Velocity S-wave (km/s) = 2.76259 5.47943 4.33913
# Velocity P-wave (km/s) = 5.54306 8.08232 6.92999
#
# Compressibility (1/GPa) = 0.02366087
#
# Stress axis : x y z
#
# Youngs Moduli (GPa) = -75.26627 -75.25960 93.54690
#
# Poissons Ratio (x) = 2.27389 0.48841
# Poissons Ratio (y) = 2.27409 0.48837
# Poissons Ratio (z) = -0.39297 -0.39290
#
# Static dielectric constant tensor:
#      x y z
#    x 1.682260 0.000000 0.000000 
#    y 0.000000 1.682250 0.000000 
#    z 0.000000 0.000000 1.739800 
# 
# From -- ./inp_files/4699.got.cif
#   From: 2010.05.17/outbox.cif.g08.bks.cpg/sg115_3_cif.got.tgz:4699.got - 2010.05.20 11:07:42.
