data_PCOD9556016
_publ_section_title
;
Structure prediction by ZEFSAII (Michael W. Deem and Ramdas Pophale) SiO2 
 PCOD9556016
Probable space group: P -4 21 C
;
_chemical_formula_sum "Si O2"
_cell_formula_units_Z 40
_cell_length_a 13.613189
_cell_length_b 13.613189
_cell_length_c 7.597169
_cell_angle_alpha 90.000000
_cell_angle_beta 90.000000
_cell_angle_gamma 90.000000
_cell_volume 1407.899114
_symmetry_space_group_name_H-M "P -4 21 C"
_symmetry_group_IT_number 114
_symmetry_cell_setting 'tetragonal'
loop_
_space_group_symop_operation_xyz
x,y,z
y,-x,-z
-x,-y,z
-y,x,-z
1/2+x,1/2-y,1/2-z
1/2-x,1/2+y,1/2-z
1/2-y,1/2-x,1/2+z
1/2+y,1/2+x,1/2+z
loop_
_atom_site_type_symbol
_atom_site_label
_atom_site_fract_x
_atom_site_fract_y
_atom_site_fract_z
Si Si1 0.000000 0.500000 0.289063
Si Si2 0.000000 0.000000 0.500000
Si Si3 0.729368 0.687712 0.587057
Si Si4 0.000000 0.000000 0.000000
Si Si5 0.071114 0.154223 0.775266
Si Si6 0.434312 0.797933 0.099651
Si Si7 0.577082 0.804426 0.823152
O O1 0.079115 0.567147 0.187002
O O2 0.060061 0.416052 0.390356
O O3 0.935795 0.918159 0.606499
O O4 0.671622 0.661658 0.406754
O O5 0.750945 0.593549 0.712898
O O6 0.837457 0.726159 0.522951
O O7 0.758417 0.519634 0.264112
O O8 0.011322 0.906070 0.883919
O O9 0.833559 0.260100 0.787669
O O10 0.542732 0.773241 0.021050
#
# Coordination Sequence:
#
# PCOD9556016 Si02
#       7
#     4   2   8   2   8   8   8
#     4  12  26  56  88 118 176 246 302 384 458 548
#     4  10  28  46  84 130 178 236 298 376 498 564
#     4  12  27  54  84 128 178 236 312 396 462 564
#     4  10  20  42  72 114 168 214 282 360 462 524
#     4  11  23  48  78 122 173 227 292 376 462 560
#     4  12  28  54  81 129 177 234 316 384 464 561
#     4  12  28  50  87 124 176 243 303 389 460 559
#
# _framework density 28.411123
#
# number of rings (size 3 to 8) (size 9 to 14) (size 15 to 20)
#    0.000    0.400    6.000    0.600    5.600    0.000 
#    0.000    0.000    0.000    0.000    0.000    0.000 
#    0.000    0.000    0.000    0.000    0.000    0.000 
#
# Total GULP energy -223019.841402 kJ/mol
# GULP energy per Si atom -5575.496035 kJ/mol
# Density = 2.834646 g / cm^3
# Si number density = 28.411123 Si / 1000 Ang^3
#
#
#
# Elastic Constant Matrix: (Units=GPa)
#
#
# Indices 1 2 3 4 5 6 
#
# 1 158.4959 69.1725 73.8642 0.0000 0.0000 0.0000
# 2 69.1725 158.4959 73.8642 0.0000 0.0000 0.0000
# 3 73.8642 73.8642 151.1773 0.0000 0.0000 0.0000
# 4 0.0000 0.0000 0.0000 43.8648 0.0000 0.0000
# 5 0.0000 0.0000 0.0000 0.0000 43.8648 0.0000
# 6 0.0000 0.0000 0.0000 0.0000 0.0000 53.2428
#
#
#
# Elastic Compliance Matrix: (Units=1/GPa)
#
#
# Indices 1 2 3 4 5 6 
#
# 1 0.008813 -0.002382 -0.003142 0.000000 0.000000 0.000000
# 2 -0.002382 0.008813 -0.003142 0.000000 0.000000 0.000000
# 3 -0.003142 -0.003142 0.009685 0.000000 0.000000 0.000000
# 4 0.000000 0.000000 0.000000 0.022797 0.000000 0.000000
# 5 0.000000 0.000000 0.000000 0.000000 0.022797 0.000000
# 6 0.000000 0.000000 0.000000 0.000000 0.000000 0.018782
#
#
# Mechanical properties :
#
#
# Convention : Reuss Voigt Hill
#
# Bulk Modulus (GPa) = 100.21243 100.21896 100.21569
# Shear Modulus (GPa) = 44.50463 44.94570 44.72517
#
# Velocity S-wave (km/s) = 3.96214 3.98172 3.97194
# Velocity P-wave (km/s) = 7.50201 7.51598 7.50900
#
# Compressibility (1/GPa) = 0.00997880
#
# Stress axis : x y z
#
# Youngs Moduli (GPa) = 113.46502 113.46502 103.24873
#
# Poissons Ratio (x) = 0.27027 0.32444
# Poissons Ratio (y) = 0.27027 0.32444
# Poissons Ratio (z) = 0.35654 0.35654
#
# Static dielectric constant tensor:
#      x y z
#    x 2.227130 0.000000 0.000000 
#    y 0.000000 2.227130 0.000000 
#    z 0.000000 0.000000 2.460730 
# 
# From -- ./inp_files/890.got.cif
#   From: 2010.05.17/outbox.cif.g08.bks.cpg/sg114_1_cif.got.tgz:890.got - 2010.05.20 11:04:54.
