data_PCOD9556995
_publ_section_title
;
Structure prediction by ZEFSAII (Michael W. Deem and Ramdas Pophale) SiO2 
 PCOD9556995
Probable space group: P -4 M 2
;
_chemical_formula_sum "Si O2"
_cell_formula_units_Z 48
_cell_length_a 9.182454
_cell_length_b 9.182454
_cell_length_c 31.807027
_cell_angle_alpha 90.000000
_cell_angle_beta 90.000000
_cell_angle_gamma 90.000000
_cell_volume 2681.887773
_symmetry_space_group_name_H-M "P -4 M 2"
_symmetry_group_IT_number 115
_symmetry_cell_setting 'tetragonal'
loop_
_space_group_symop_operation_xyz
x,y,z
y,-x,-z
-x,-y,z
-y,x,-z
y,x,-z
-y,-x,-z
-x,y,z
x,-y,z
loop_
_atom_site_type_symbol
_atom_site_label
_atom_site_fract_x
_atom_site_fract_y
_atom_site_fract_z
Si Si1 0.332505 0.822645 0.210655
Si Si2 0.673746 0.172413 0.538917
Si Si3 0.671068 0.674809 0.373880
Si Si4 0.672538 0.826519 0.961103
Si Si5 0.173064 0.173565 0.125550
Si Si6 0.170552 0.824302 0.295868
O O1 0.500000 0.775704 0.213288
O O2 0.258224 0.776852 0.167055
O O3 0.243182 0.777502 0.251841
O O4 0.330537 0.000000 0.210360
O O5 0.758922 0.241078 0.500000
O O6 0.500000 0.194868 0.532751
O O7 0.715304 0.251173 0.582400
O O8 0.700150 0.000000 0.542142
O O9 0.500000 0.710525 0.375591
O O10 0.685218 0.500000 0.369127
O O11 0.747039 0.752812 0.334846
O O12 0.500000 0.802564 0.959817
O O13 0.744760 0.782121 0.916877
O O14 0.699086 0.000000 0.966091
O O15 0.743622 0.743622 0.000000
O O16 0.000000 0.196094 0.131972
O O17 0.196160 0.000000 0.120079
O O18 0.000000 0.786851 0.296503
O O19 0.182806 0.000000 0.298617
#
# Coordination Sequence:
#
# PCOD9556995 Si02
#       6
#     8   8   8   8   8   8
#     4   9  17  30  50  76 104 135 174 219 264 311
#     4  10  21  37  57  80 106 138 176 217 262 312
#     4  10  21  37  57  80 107 141 180 220 264 316
#     4  10  21  36  54  77 105 137 174 215 260 312
#     4   9  17  31  52  75  99 130 170 215 261 310
#     4  10  20  34  54  80 109 141 178 220 265 312
#
# _framework density 17.897842000000001
#
# number of rings (size 3 to 8) (size 9 to 14) (size 15 to 20)
#    0.000    2.333    0.000    2.500    0.000    7.333 
#    0.000    2.500    0.000    3.000    0.000    0.000 
#    0.000    0.000    0.000    0.000    0.000    0.000 
#
# Total GULP energy -267966.936962 kJ/mol
# GULP energy per Si atom -5582.644520 kJ/mol
# Density = 1.785711 g / cm^3
# Si number density = 17.897842 Si / 1000 Ang^3
#
#
#
# Elastic Constant Matrix: (Units=GPa)
#
#
# Indices 1 2 3 4 5 6 
#
# 1 74.9053 61.4334 93.9280 0.0000 0.0000 0.0000
# 2 61.4334 74.9053 93.9280 0.0000 0.0000 0.0000
# 3 93.9280 93.9280 221.2485 0.0000 0.0000 0.0000
# 4 0.0000 0.0000 0.0000 347.0599 0.0000 0.0000
# 5 0.0000 0.0000 0.0000 0.0000 347.0599 0.0000
# 6 0.0000 0.0000 0.0000 0.0000 0.0000 22.7481
#
#
#
# Elastic Compliance Matrix: (Units=1/GPa)
#
#
# Indices 1 2 3 4 5 6 
#
# 1 0.045950 -0.028278 -0.007502 0.000000 0.000000 0.000000
# 2 -0.028278 0.045950 -0.007502 0.000000 0.000000 0.000000
# 3 -0.007502 -0.007502 0.010890 0.000000 0.000000 0.000000
# 4 0.000000 0.000000 0.000000 0.002881 0.000000 0.000000
# 5 0.000000 0.000000 0.000000 0.000000 0.002881 0.000000
# 6 0.000000 0.000000 0.000000 0.000000 0.000000 0.043960
#
#
# Mechanical properties :
#
#
# Convention : Reuss Voigt Hill
#
# Bulk Modulus (GPa) = 61.63636 96.62642 79.13139
# Shear Modulus (GPa) = 20.45104 151.49158 85.97131
#
# Velocity S-wave (km/s) = 3.38398 9.21011 6.93821
# Velocity P-wave (km/s) = 7.05557 12.93083 10.41603
#
# Compressibility (1/GPa) = 0.01622419
#
# Stress axis : x y z
#
# Youngs Moduli (GPa) = 21.76275 21.76275 91.82875
#
# Poissons Ratio (x) = 0.61541 0.68893
# Poissons Ratio (y) = 0.61541 0.68893
# Poissons Ratio (z) = 0.16327 0.16327
#
# Static dielectric constant tensor:
#      x y z
#    x 1.598880 0.000000 0.000000 
#    y 0.000000 1.598880 0.000000 
#    z 0.000000 0.000000 1.576720 
# 
# From -- ./inp_files/6026.got.cif
#   From: 2010.05.17/outbox.cif.g08.bks.cpg/sg115_4_cif.got.tgz:6026.got - 2010.05.20 11:07:42.
