data_PCOD9557060
_publ_section_title
;
Structure prediction by ZEFSAII (Michael W. Deem and Ramdas Pophale) SiO2 
 PCOD9557060
Probable space group: P -4 M 2
;
_chemical_formula_sum "Si O2"
_cell_formula_units_Z 44
_cell_length_a 9.171828
_cell_length_b 9.171828
_cell_length_c 29.559318
_cell_angle_alpha 90.000000
_cell_angle_beta 90.000000
_cell_angle_gamma 90.000000
_cell_volume 2486.601626
_symmetry_space_group_name_H-M "P -4 M 2"
_symmetry_group_IT_number 115
_symmetry_cell_setting 'tetragonal'
loop_
_space_group_symop_operation_xyz
x,y,z
y,-x,-z
-x,-y,z
-y,x,-z
y,x,-z
-y,-x,-z
-x,y,z
x,-y,z
loop_
_atom_site_type_symbol
_atom_site_label
_atom_site_fract_x
_atom_site_fract_y
_atom_site_fract_z
Si Si1 0.327428 0.675179 0.915294
Si Si2 0.832518 0.677482 0.822971
Si Si3 0.668944 0.677932 0.450280
Si Si4 0.672444 0.325271 0.731709
Si Si5 0.826543 0.826543 0.000000
Si Si6 0.832427 0.677798 0.360088
O O1 0.500000 0.703798 0.916054
O O2 0.307137 0.500000 0.920352
O O3 0.258700 0.720000 0.867190
O O4 0.247539 0.756342 0.955978
O O5 0.831310 0.500000 0.822168
O O6 0.758964 0.724903 0.776064
O O7 0.000000 0.725049 0.826422
O O8 0.723884 0.723884 0.500000
O O9 0.500000 0.720959 0.445092
O O10 0.671408 0.500000 0.451265
O O11 0.758642 0.727074 0.406782
O O12 0.500000 0.294737 0.737907
O O13 0.687736 0.500000 0.727492
O O14 0.723011 0.251879 0.685178
O O15 0.000000 0.800912 0.998954
O O16 0.826852 0.500000 0.360669
O O17 0.000000 0.722078 0.358060
#
# Coordination Sequence:
#
# PCOD9557060 Si02
#       6
#     8   8   8   8   4   8
#     4  10  20  35  57  83 107 133 169 210 251 297
#     4   9  17  30  50  75 101 129 162 202 245 286
#     4   8  13  22  38  60  84 111 146 187 229 274
#     4   9  16  27  45  68  93 122 157 195 234 279
#     4  11  24  39  54  76 108 143 176 209 248 294
#     4   9  16  25  39  62  91 119 148 187 234 279
#
# _framework density 17.694832999999999
#
# number of rings (size 3 to 8) (size 9 to 14) (size 15 to 20)
#    0.000    2.818    0.000    2.727    0.000    7.273 
#    0.000    0.909    0.000    4.909    0.000    5.091 
#    0.000    0.000    0.000    0.000    0.000    0.000 
#
# Total GULP energy -245289.106963 kJ/mol
# GULP energy per Si atom -5574.752431 kJ/mol
# Density = 1.765456 g / cm^3
# Si number density = 17.694833 Si / 1000 Ang^3
#
#
#
# Elastic Constant Matrix: (Units=GPa)
#
#
# Indices 1 2 3 4 5 6 
#
# 1 57.5204 46.0828 75.5002 0.0000 0.0000 0.0000
# 2 46.0828 57.5204 75.5002 0.0000 0.0000 0.0000
# 3 75.5002 75.5002 219.9147 0.0000 0.0000 0.0000
# 4 0.0000 0.0000 0.0000 -7.3558 0.0000 0.0000
# 5 0.0000 0.0000 0.0000 0.0000 -7.3558 0.0000
# 6 0.0000 0.0000 0.0000 0.0000 0.0000 12.6172
#
#
#
# Elastic Compliance Matrix: (Units=1/GPa)
#
#
# Indices 1 2 3 4 5 6 
#
# 1 0.053375 -0.034056 -0.006633 0.000000 0.000000 0.000000
# 2 -0.034056 0.053375 -0.006633 0.000000 0.000000 0.000000
# 3 -0.006633 -0.006633 0.009101 0.000000 0.000000 0.000000
# 4 0.000000 0.000000 0.000000 -0.135946 0.000000 0.000000
# 5 0.000000 0.000000 0.000000 0.000000 -0.135946 0.000000
# 6 0.000000 0.000000 0.000000 0.000000 0.000000 0.079257
#
#
# Mechanical properties :
#
#
# Convention : Reuss Voigt Hill
#
# Bulk Modulus (GPa) = 47.14915 81.01351 64.08133
# Shear Modulus (GPa) = 200.58361 8.77260 104.67810
#
# Velocity S-wave (km/s) = 10.65848 2.22901 7.69973
# Velocity P-wave (km/s) = 13.34820 7.24622 10.73970
#
# Compressibility (1/GPa) = 0.02120929
#
# Stress axis : x y z
#
# Youngs Moduli (GPa) = 18.73533 18.73533 109.87413
#
# Poissons Ratio (x) = 0.63805 0.72874
# Poissons Ratio (y) = 0.63805 0.72874
# Poissons Ratio (z) = 0.12426 0.12426
#
# Static dielectric constant tensor:
#      x y z
#    x 1.587130 0.000000 0.000000 
#    y 0.000000 1.587130 0.000000 
#    z 0.000000 0.000000 1.596070 
# 
# From -- ./inp_files/5837.got.cif
#   From: 2010.05.17/outbox.cif.g08.bks.cpg/sg115_3_cif.got.tgz:5837.got - 2010.05.20 11:07:42.
