data_PCOD9557156
_publ_section_title
;
Structure prediction by ZEFSAII (Michael W. Deem and Ramdas Pophale) SiO2 
 PCOD9557156
Probable space group: P -4 M 2
;
_chemical_formula_sum "Si O2"
_cell_formula_units_Z 44
_cell_length_a 9.331660
_cell_length_b 9.331660
_cell_length_c 29.287748
_cell_angle_alpha 90.000000
_cell_angle_beta 90.000000
_cell_angle_gamma 90.000000
_cell_volume 2550.373533
_symmetry_space_group_name_H-M "P -4 M 2"
_symmetry_group_IT_number 115
_symmetry_cell_setting 'tetragonal'
loop_
_space_group_symop_operation_xyz
x,y,z
y,-x,-z
-x,-y,z
-y,x,-z
y,x,-z
-y,-x,-z
-x,y,z
x,-y,z
loop_
_atom_site_type_symbol
_atom_site_label
_atom_site_fract_x
_atom_site_fract_y
_atom_site_fract_z
Si Si1 0.330110 0.171283 0.040994
Si Si2 0.174312 0.334780 0.224023
Si Si3 0.171279 0.669106 0.592880
Si Si4 0.169997 0.830004 0.500000
Si Si5 0.327156 0.168909 0.674258
Si Si6 0.828537 0.831823 0.866516
O O1 0.500000 0.196643 0.041648
O O2 0.258720 0.213691 0.089180
O O3 0.306277 0.000000 0.035152
O O4 0.255054 0.255054 0.000000
O O5 0.218603 0.500000 0.218452
O O6 0.217809 0.283878 0.274559
O O7 0.219259 0.243604 0.180391
O O8 0.000000 0.332877 0.224842
O O9 0.199648 0.500000 0.591145
O O10 0.212532 0.743484 0.545096
O O11 0.252826 0.741984 0.634730
O O12 0.000000 0.690344 0.598410
O O13 0.000000 0.807698 0.492095
O O14 0.500000 0.180764 0.671870
O O15 0.291793 0.000000 0.669236
O O16 0.000000 0.823207 0.861743
O O17 0.791258 0.000000 0.873559
#
# Coordination Sequence:
#
# PCOD9557156 Si02
#       6
#     8   8   8   4   8   8
#     4  10  21  36  53  74 101 133 168 206 250 299
#     4   8  15  29  49  73  99 127 163 205 245 288
#     4  10  21  35  51  75 105 133 164 205 252 300
#     4   9  18  34  54  73  96 130 170 209 250 297
#     4   9  18  33  53  76 102 134 171 208 246 291
#     4   9  17  30  50  75 100 127 162 204 248 294
#
# _framework density 17.252374
#
# number of rings (size 3 to 8) (size 9 to 14) (size 15 to 20)
#    0.000    2.818    0.000    2.182    0.000    4.727 
#    0.000    6.364    0.000    3.273    0.000    0.000 
#    0.000    0.000    0.000    0.000    0.000    0.000 
#
# Total GULP energy -245320.222033 kJ/mol
# GULP energy per Si atom -5575.459592 kJ/mol
# Density = 1.721311 g / cm^3
# Si number density = 17.252374 Si / 1000 Ang^3
#
#
#
# Elastic Constant Matrix: (Units=GPa)
#
#
# Indices 1 2 3 4 5 6 
#
# 1 50.0649 46.1142 83.1856 0.0000 0.0000 0.0000
# 2 46.1142 50.0653 83.1855 0.0000 0.0000 0.0000
# 3 83.1856 83.1855 220.1021 0.0000 0.0000 0.0000
# 4 0.0000 0.0000 0.0000 -30.9171 0.0000 0.0000
# 5 0.0000 0.0000 0.0000 0.0000 -30.9136 0.0000
# 6 0.0000 0.0000 0.0000 0.0000 0.0000 20.1350
#
#
#
# Elastic Compliance Matrix: (Units=1/GPa)
#
#
# Indices 1 2 3 4 5 6 
#
# 1 0.141569 -0.111538 -0.011350 0.000000 0.000000 0.000000
# 2 -0.111538 0.141566 -0.011349 0.000000 0.000000 0.000000
# 3 -0.011350 -0.011349 0.013122 0.000000 0.000000 0.000000
# 4 0.000000 0.000000 0.000000 -0.032345 0.000000 0.000000
# 5 0.000000 0.000000 0.000000 0.000000 -0.032348 0.000000
# 6 0.000000 0.000000 0.000000 0.000000 0.000000 0.049665
#
#
# Mechanical properties :
#
#
# Convention : Reuss Voigt Hill
#
# Bulk Modulus (GPa) = 35.99270 82.80034 59.39652
# Shear Modulus (GPa) = 8.94513 -1.15599 3.89457
#
# Velocity S-wave (km/s) = 2.27950 -0.81945 1.50410
# Velocity P-wave (km/s) = 5.27598 6.87040 6.12529
#
# Compressibility (1/GPa) = 0.02778341
#
# Stress axis : x y z
#
# Youngs Moduli (GPa) = 7.06369 7.06385 76.20764
#
# Poissons Ratio (x) = 0.78789 0.86495
# Poissons Ratio (y) = 0.78787 0.86485
# Poissons Ratio (z) = 0.08017 0.08017
#
# Static dielectric constant tensor:
#      x y z
#    x 1.573180 0.000000 0.000000 
#    y 0.000000 1.573180 0.000000 
#    z 0.000000 0.000000 1.571740 
# 
# From -- ./inp_files/5803.got.cif
#   From: 2010.05.17/outbox.cif.g08.bks.cpg/sg115_3_cif.got.tgz:5803.got - 2010.05.20 11:07:42.
