data_PCOD9557232
_publ_section_title
;
Structure prediction by ZEFSAII (Michael W. Deem and Ramdas Pophale) SiO2 
 PCOD9557232
Probable space group: P -4 M 2
;
_chemical_formula_sum "Si O2"
_cell_formula_units_Z 44
_cell_length_a 9.291792
_cell_length_b 9.291792
_cell_length_c 29.360800
_cell_angle_alpha 90.000000
_cell_angle_beta 90.000000
_cell_angle_gamma 90.000000
_cell_volume 2534.935092
_symmetry_space_group_name_H-M "P -4 M 2"
_symmetry_group_IT_number 115
_symmetry_cell_setting 'tetragonal'
loop_
_space_group_symop_operation_xyz
x,y,z
y,-x,-z
-x,-y,z
-y,x,-z
y,x,-z
-y,-x,-z
-x,y,z
x,-y,z
loop_
_atom_site_type_symbol
_atom_site_label
_atom_site_fract_x
_atom_site_fract_y
_atom_site_fract_z
Si Si1 0.328423 0.829436 0.041132
Si Si2 0.165643 0.324710 0.225803
Si Si3 0.328503 0.328503 0.500000
Si Si4 0.671440 0.328448 0.682830
Si Si5 0.329413 0.671396 0.865563
Si Si6 0.324682 0.165695 0.408569
O O1 0.500000 0.805021 0.034815
O O2 0.287749 0.756914 0.089187
O O3 0.303365 0.000000 0.042437
O O4 0.243558 0.756443 0.000000
O O5 0.169308 0.500000 0.225863
O O6 0.247313 0.279535 0.271657
O O7 0.245535 0.280192 0.179576
O O8 0.000000 0.279251 0.226051
O O9 0.306250 0.500000 0.494027
O O10 0.279774 0.246806 0.454559
O O11 0.500000 0.305687 0.676877
O O12 0.693274 0.500000 0.688682
O O13 0.753262 0.279635 0.637420
O O14 0.500000 0.699244 0.872575
O O15 0.312812 0.500000 0.858266
O O16 0.500000 0.169181 0.408553
O O17 0.279225 0.000000 0.408587
#
# Coordination Sequence:
#
# PCOD9557232 Si02
#       6
#     8   8   4   8   8   8
#     4  10  21  36  54  77 104 134 169 208 250 297
#     4   9  17  29  47  72  98 123 156 198 239 280
#     4   9  16  28  48  71  92 116 150 191 232 274
#     4   9  16  28  48  71  93 119 153 192 233 277
#     4   9  17  31  52  75  98 126 161 201 244 289
#     4   9  17  29  46  69  94 119 151 191 232 274
#
# _framework density 17.357445999999999
#
# number of rings (size 3 to 8) (size 9 to 14) (size 15 to 20)
#    0.000    2.818    0.000    1.636    0.000    6.182 
#    0.000    3.636    0.000   11.727    0.000    0.000 
#    0.000    0.000    0.000    0.000    0.000    0.000 
#
# Total GULP energy -245328.259540 kJ/mol
# GULP energy per Si atom -5575.642262 kJ/mol
# Density = 1.731794 g / cm^3
# Si number density = 17.357446 Si / 1000 Ang^3
#
#
#
# Elastic Constant Matrix: (Units=GPa)
#
#
# Indices 1 2 3 4 5 6 
#
# 1 53.0693 46.7415 85.5051 0.0000 0.0000 0.0000
# 2 46.7415 53.0697 85.5041 0.0000 0.0000 0.0000
# 3 85.5051 85.5041 231.0869 0.0000 0.0000 0.0000
# 4 0.0000 0.0000 0.0000 -4.8770 0.0000 0.0000
# 5 0.0000 0.0000 0.0000 0.0000 -4.8765 0.0000
# 6 0.0000 0.0000 0.0000 0.0000 0.0000 11.0908
#
#
#
# Elastic Compliance Matrix: (Units=1/GPa)
#
#
# Indices 1 2 3 4 5 6 
#
# 1 0.092701 -0.065328 -0.010129 0.000000 0.000000 0.000000
# 2 -0.065328 0.092697 -0.010126 0.000000 0.000000 0.000000
# 3 -0.010129 -0.010126 0.011822 0.000000 0.000000 0.000000
# 4 0.000000 0.000000 0.000000 -0.205042 0.000000 0.000000
# 5 0.000000 0.000000 0.000000 0.000000 -0.205065 0.000000
# 6 0.000000 0.000000 0.000000 0.000000 0.000000 0.090165
#
#
# Mechanical properties :
#
#
# Convention : Reuss Voigt Hill
#
# Bulk Modulus (GPa) = 38.38285 85.85858 62.12072
# Shear Modulus (GPa) = 87.52285 8.23246 47.87766
#
# Velocity S-wave (km/s) = 7.10868 2.18018 5.25768
# Velocity P-wave (km/s) = 9.46250 7.47730 8.52786
#
# Compressibility (1/GPa) = 0.02605330
#
# Stress axis : x y z
#
# Youngs Moduli (GPa) = 10.78735 10.78789 84.58931
#
# Poissons Ratio (x) = 0.70476 0.85677
# Poissons Ratio (y) = 0.70472 0.85657
# Poissons Ratio (z) = 0.10926 0.10924
#
# Static dielectric constant tensor:
#      x y z
#    x 1.573990 0.000000 0.000000 
#    y 0.000000 1.573990 0.000000 
#    z 0.000000 0.000000 1.567860 
# 
# From -- ./inp_files/5731.got.cif
#   From: 2010.05.17/outbox.cif.g08.bks.cpg/sg115_3_cif.got.tgz:5731.got - 2010.05.20 11:07:42.
