data_PCOD9557595
_publ_section_title
;
Structure prediction by ZEFSAII (Michael W. Deem and Ramdas Pophale) SiO2 
 PCOD9557595
Probable space group: P -4 C 2
;
_chemical_formula_sum "Si O2"
_cell_formula_units_Z 64
_cell_length_a 21.050323
_cell_length_b 21.050323
_cell_length_c 9.150140
_cell_angle_alpha 90.000000
_cell_angle_beta 90.000000
_cell_angle_gamma 90.000000
_cell_volume 4054.574337
_symmetry_space_group_name_H-M "P -4 C 2"
_symmetry_group_IT_number 116
_symmetry_cell_setting 'tetragonal'
loop_
_space_group_symop_operation_xyz
x,y,z
y,-x,-z
-x,-y,z
-y,x,-z
y,x,1/2-z
-y,-x,1/2-z
-x,y,1/2+z
x,-y,1/2+z
loop_
_atom_site_type_symbol
_atom_site_label
_atom_site_fract_x
_atom_site_fract_y
_atom_site_fract_z
Si Si1 0.294929 0.803899 0.204008
Si Si2 0.122617 0.350870 0.037384
Si Si3 0.870690 0.834679 0.894067
Si Si4 0.899628 0.447227 0.789033
Si Si5 0.773655 0.954037 0.374034
Si Si6 0.768426 0.080441 0.549173
Si Si7 0.362234 0.122894 0.962506
Si Si8 0.952101 0.585797 0.781404
O O1 0.262313 0.737688 0.250000
O O2 0.234080 0.850471 0.173487
O O3 0.338397 0.828494 0.337752
O O4 0.332968 0.813265 0.052097
O O5 0.127436 0.408765 0.150889
O O6 0.090419 0.288681 0.107255
O O7 0.073595 0.371799 0.911564
O O8 0.878296 0.878296 0.750000
O O9 0.926535 0.823761 0.008628
O O10 0.814174 0.864701 0.989838
O O11 0.907687 0.522766 0.776731
O O12 0.974113 0.427774 0.801232
O O13 0.863857 0.421828 0.932927
O O14 0.790798 0.947773 0.203928
O O15 0.763355 0.025690 0.426728
O O16 0.698141 0.109244 0.563300
O O17 0.380071 0.060071 0.871338
#
# Coordination Sequence:
#
# PCOD9557595 Si02
#       8
#     8   8   8   8   8   8   8   8
#     4   9  18  34  47  64  88 117 145 193 255 288
#     4  10  20  30  46  65  88 118 157 188 233 289
#     4  10  19  36  50  68  94 114 144 189 251 293
#     4  11  19  32  43  67  90 124 159 196 229 280
#     4  11  23  32  50  73  92 117 152 193 238 298
#     4  12  21  33  51  70  93 118 151 192 240 303
#     4  11  20  30  48  65  88 123 157 188 238 290
#     4  10  21  31  44  60  98 126 154 192 237 279
#
# _framework density 15.784641000000001
#
# number of rings (size 3 to 8) (size 9 to 14) (size 15 to 20)
#    0.000    1.500    3.750    4.125    3.500    2.000 
#    0.000    0.625    0.000    0.375    0.000    2.625 
#    0.000    0.000    0.000    0.000    0.000    0.000 
#
# Total GULP energy -356635.255251 kJ/mol
# GULP energy per Si atom -5572.425863 kJ/mol
# Density = 1.574871 g / cm^3
# Si number density = 15.784641 Si / 1000 Ang^3
#
#
#
# Elastic Constant Matrix: (Units=GPa)
#
#
# Indices 1 2 3 4 5 6 
#
# 1 37.6627 23.6961 17.1350 0.0000 0.0000 0.0000
# 2 23.6961 37.6627 17.1347 0.0000 0.0000 0.0000
# 3 17.1350 17.1347 97.2760 0.0000 0.0000 0.0000
# 4 0.0000 0.0000 0.0000 17.7439 0.0000 0.0000
# 5 0.0000 0.0000 0.0000 0.0000 17.7438 0.0000
# 6 0.0000 0.0000 0.0000 0.0000 0.0000 19.1474
#
#
#
# Elastic Compliance Matrix: (Units=1/GPa)
#
#
# Indices 1 2 3 4 5 6 
#
# 1 0.044838 -0.026762 -0.003184 0.000000 0.000000 0.000000
# 2 -0.026762 0.044838 -0.003184 0.000000 0.000000 0.000000
# 3 -0.003184 -0.003184 0.011402 0.000000 0.000000 0.000000
# 4 0.000000 0.000000 0.000000 0.056357 0.000000 0.000000
# 5 0.000000 0.000000 0.000000 0.000000 0.056358 0.000000
# 6 0.000000 0.000000 0.000000 0.000000 0.000000 0.052226
#
#
# Mechanical properties :
#
#
# Convention : Reuss Voigt Hill
#
# Bulk Modulus (GPa) = 28.72120 32.05921 30.39020
# Shear Modulus (GPa) = 14.53979 18.56940 16.55460
#
# Velocity S-wave (km/s) = 3.03831 3.43362 3.24200
# Velocity P-wave (km/s) = 5.52663 6.00618 5.77139
#
# Compressibility (1/GPa) = 0.03481749
#
# Stress axis : x y z
#
# Youngs Moduli (GPa) = 22.30265 22.30268 87.70599
#
# Poissons Ratio (x) = 0.59686 0.27927
# Poissons Ratio (y) = 0.59686 0.27925
# Poissons Ratio (z) = 0.07101 0.07101
#
# Static dielectric constant tensor:
#      x y z
#    x 1.536880 0.000000 0.000000 
#    y 0.000000 1.536880 0.000000 
#    z 0.000000 0.000000 1.585560 
# 
# From -- ./inp_files/1140.got.cif
#   From: 2010.05.17/outbox.cif.g08.bks.cpg/sg116_1_cif.got.tgz:1140.got - 2010.05.20 11:11:43.
