data_PCOD9557601
_publ_section_title
;
Structure prediction by ZEFSAII (Michael W. Deem and Ramdas Pophale) SiO2 
 PCOD9557601
Probable space group: P -4 C 2
;
_chemical_formula_sum "Si O2"
_cell_formula_units_Z 48
_cell_length_a 8.722117
_cell_length_b 8.722117
_cell_length_c 31.484230
_cell_angle_alpha 90.000000
_cell_angle_beta 90.000000
_cell_angle_gamma 90.000000
_cell_volume 2395.173028
_symmetry_space_group_name_H-M "P -4 C 2"
_symmetry_group_IT_number 116
_symmetry_cell_setting 'tetragonal'
loop_
_space_group_symop_operation_xyz
x,y,z
y,-x,-z
-x,-y,z
-y,x,-z
y,x,1/2-z
-y,-x,1/2-z
-x,y,1/2+z
x,-y,1/2+z
loop_
_atom_site_type_symbol
_atom_site_label
_atom_site_fract_x
_atom_site_fract_y
_atom_site_fract_z
Si Si1 0.500000 0.500000 0.750000
Si Si2 0.324604 0.480723 0.593560
Si Si3 0.182742 0.832071 0.429649
Si Si4 0.872171 0.252836 0.625774
Si Si5 0.500000 0.000000 0.808937
Si Si6 0.968494 0.321779 0.352495
Si Si7 0.301716 0.658913 0.189156
Si Si8 0.000000 0.000000 0.500000
O O1 0.631537 0.543070 0.784281
O O2 0.500000 0.500000 0.580191
O O3 0.231334 0.355708 0.566290
O O4 0.238115 0.642411 0.596780
O O5 0.322724 0.414709 0.642173
O O6 0.096189 0.709628 0.399929
O O7 0.189564 0.988946 0.402259
O O8 0.090676 0.876960 0.471358
O O9 0.944602 0.363462 0.660722
O O10 0.777335 0.121377 0.648949
O O11 0.570332 0.843314 0.789374
O O12 0.836577 0.270614 0.319779
O O13 0.000000 0.500000 0.346229
#
# Coordination Sequence:
#
# PCOD9557601 Si02
#       8
#     2   8   8   8   4   8   8   2
#     4  12  24  44  60  86 146 176 206 276 346 398
#     4  10  19  37  67  95 117 160 230 271 311 390
#     4  11  21  38  61  93 124 169 211 264 328 396
#     4  11  17  35  65  92 122 156 214 273 314 376
#     4  10  20  36  66  94 116 166 220 264 312 384
#     4  11  22  36  64  99 123 161 224 277 312 385
#     4  10  22  39  60  95 123 171 212 264 336 390
#     4  12  24  40  60  92 132 174 208 260 352 408
#
# _framework density 20.040306000000001
#
# number of rings (size 3 to 8) (size 9 to 14) (size 15 to 20)
#    0.000    1.333    7.500    2.000    2.333    0.000 
#    1.500    1.667    0.000    1.000    0.000    0.000 
#    0.000    0.000    0.000    0.000    0.000    0.000 
#
# Total GULP energy -267582.072620 kJ/mol
# GULP energy per Si atom -5574.626513 kJ/mol
# Density = 1.999469 g / cm^3
# Si number density = 20.040306 Si / 1000 Ang^3
#
#
#
# Elastic Constant Matrix: (Units=GPa)
#
#
# Indices 1 2 3 4 5 6 
#
# 1 111.4439 42.9513 15.5456 0.0000 0.0000 0.0000
# 2 42.9513 111.4439 15.5456 0.0000 0.0000 0.0000
# 3 15.5456 15.5456 44.9169 0.0000 0.0000 0.0000
# 4 0.0000 0.0000 0.0000 -2.3725 0.0000 0.0000
# 5 0.0000 0.0000 0.0000 0.0000 -2.3725 0.0000
# 6 0.0000 0.0000 0.0000 0.0000 0.0000 43.9665
#
#
#
# Elastic Compliance Matrix: (Units=1/GPa)
#
#
# Indices 1 2 3 4 5 6 
#
# 1 0.010781 -0.003819 -0.002410 0.000000 0.000000 0.000000
# 2 -0.003819 0.010781 -0.002410 0.000000 0.000000 0.000000
# 3 -0.002410 -0.002410 0.023931 0.000000 0.000000 0.000000
# 4 0.000000 0.000000 0.000000 -0.421493 0.000000 0.000000
# 5 0.000000 0.000000 0.000000 0.000000 -0.421493 0.000000
# 6 0.000000 0.000000 0.000000 0.000000 0.000000 0.022745
#
#
# Mechanical properties :
#
#
# Convention : Reuss Voigt Hill
#
# Bulk Modulus (GPa) = 35.43940 46.20998 40.82469
# Shear Modulus (GPa) = -6.68390 20.76175 7.03893
#
# Velocity S-wave (km/s) = -1.82824 3.22219 1.87617
# Velocity P-wave (km/s) = 3.64223 6.07881 5.01087
#
# Compressibility (1/GPa) = 0.02821718
#
# Stress axis : x y z
#
# Youngs Moduli (GPa) = 92.75471 92.75471 41.78637
#
# Poissons Ratio (x) = 0.35423 0.10069
# Poissons Ratio (y) = 0.35423 0.10069
# Poissons Ratio (z) = 0.22350 0.22350
#
# Static dielectric constant tensor:
#      x y z
#    x 1.747520 0.000000 0.000000 
#    y 0.000000 1.747520 0.000000 
#    z 0.000000 0.000000 1.707920 
# 
# From -- ./inp_files/5351.got.cif
#   From: 2010.05.17/outbox.cif.g08.bks.cpg/sg116_3_cif.got.tgz:5351.got - 2010.05.20 11:11:43.
