data_PCOD9557517
_publ_section_title
;
Structure prediction by ZEFSAII (Michael W. Deem and Ramdas Pophale) SiO2 
 PCOD9557517
Probable space group: P -4 C 2
;
_chemical_formula_sum "Si O2"
_cell_formula_units_Z 40
_cell_length_a 16.451452
_cell_length_b 16.451452
_cell_length_c 9.022685
_cell_angle_alpha 90.000000
_cell_angle_beta 90.000000
_cell_angle_gamma 90.000000
_cell_volume 2441.992158
_symmetry_space_group_name_H-M "P -4 C 2"
_symmetry_group_IT_number 116
_symmetry_cell_setting 'tetragonal'
loop_
_space_group_symop_operation_xyz
x,y,z
y,-x,-z
-x,-y,z
-y,x,-z
y,x,1/2-z
-y,-x,1/2-z
-x,y,1/2+z
x,-y,1/2+z
loop_
_atom_site_type_symbol
_atom_site_label
_atom_site_fract_x
_atom_site_fract_y
_atom_site_fract_z
Si Si1 0.544726 0.102110 0.515928
Si Si2 0.348063 0.114195 0.505725
Si Si3 0.290826 0.607298 0.543121
Si Si4 0.559258 0.279929 0.616140
Si Si5 0.004748 0.633278 0.239596
O O1 0.447279 0.105886 0.508530
O O2 0.575104 0.192901 0.541970
O O3 0.580865 0.061313 0.369686
O O4 0.577732 0.049782 0.652869
O O5 0.338260 0.211251 0.495936
O O6 0.319226 0.066754 0.652498
O O7 0.320907 0.060560 0.364614
O O8 0.300965 0.532875 0.429298
O O9 0.373533 0.657712 0.557037
O O10 0.273812 0.569824 0.706713
#
# Coordination Sequence:
#
# PCOD9557517 Si02
#       5
#     8   8   8   8   8
#     4  10  17  27  44  68  90 116 141 184 223 283
#     4  10  17  27  44  68  90 116 141 184 223 283
#     4  10  22  37  50  65  88 120 161 205 242 272
#     4  10  22  37  50  65  88 120 161 205 242 272
#     4  10  17  26  44  68  94 112 140 173 230 277
#
# _framework density 16.380068000000001
#
# number of rings (size 3 to 8) (size 9 to 14) (size 15 to 20)
#    0.000    2.000    2.000    4.800    8.400    1.200 
#    0.000    2.000    0.000    0.000    0.000    0.000 
#    0.000    0.000    0.000    0.000    0.000   70.000 
#
# Total GULP energy -222974.971599 kJ/mol
# GULP energy per Si atom -5574.374290 kJ/mol
# Density = 1.634279 g / cm^3
# Si number density = 16.380068 Si / 1000 Ang^3
#
#
#
# Elastic Constant Matrix: (Units=GPa)
#
#
# Indices 1 2 3 4 5 6 
#
# 1 45.6533 22.5750 17.7608 0.0000 0.0000 0.0000
# 2 22.5750 45.6533 17.7608 0.0000 0.0000 0.0000
# 3 17.7608 17.7608 78.5133 0.0000 0.0000 0.0000
# 4 0.0000 0.0000 0.0000 17.2945 0.0000 0.0000
# 5 0.0000 0.0000 0.0000 0.0000 17.2945 0.0000
# 6 0.0000 0.0000 0.0000 0.0000 0.0000 -1.6793
#
#
#
# Elastic Compliance Matrix: (Units=1/GPa)
#
#
# Indices 1 2 3 4 5 6 
#
# 1 0.029972 -0.013359 -0.003758 0.000000 0.000000 0.000000
# 2 -0.013359 0.029972 -0.003758 0.000000 0.000000 0.000000
# 3 -0.003758 -0.003758 0.014437 0.000000 0.000000 0.000000
# 4 0.000000 0.000000 0.000000 0.057822 0.000000 0.000000
# 5 0.000000 0.000000 0.000000 0.000000 0.057822 0.000000
# 6 0.000000 0.000000 0.000000 0.000000 0.000000 -0.595470
#
#
# Mechanical properties :
#
#
# Convention : Reuss Voigt Hill
#
# Bulk Modulus (GPa) = 30.64580 31.77925 31.21252
# Shear Modulus (GPa) = -14.17162 14.03015 -0.07073
#
# Velocity S-wave (km/s) = -2.94458 2.92984 -0.20803
# Velocity P-wave (km/s) = 2.68125 5.55775 4.36335
#
# Compressibility (1/GPa) = 0.03263090
#
# Stress axis : x y z
#
# Youngs Moduli (GPa) = 33.36446 33.36446 69.26653
#
# Poissons Ratio (x) = 0.44571 0.26031
# Poissons Ratio (y) = 0.44571 0.26031
# Poissons Ratio (z) = 0.12539 0.12539
#
# Static dielectric constant tensor:
#      x y z
#    x 1.562980 0.000000 0.000000 
#    y 0.000000 1.562980 0.000000 
#    z 0.000000 0.000000 1.610020 
# 
# From -- ./inp_files/897.got.cif
#   From: 2010.05.17/outbox.cif.g08.bks.cpg/sg116_1_cif.got.tgz:897.got - 2010.05.20 11:11:43.
