data_PCOD9557182
_publ_section_title
;
Structure prediction by ZEFSAII (Michael W. Deem and Ramdas Pophale) SiO2 
 PCOD9557182
Probable space group: P -4 M 2
;
_chemical_formula_sum "Si O2"
_cell_formula_units_Z 40
_cell_length_a 7.917251
_cell_length_b 7.917251
_cell_length_c 30.582406
_cell_angle_alpha 90.000000
_cell_angle_beta 90.000000
_cell_angle_gamma 90.000000
_cell_volume 1916.992778
_symmetry_space_group_name_H-M "P -4 M 2"
_symmetry_group_IT_number 115
_symmetry_cell_setting 'tetragonal'
loop_
_space_group_symop_operation_xyz
x,y,z
y,-x,-z
-x,-y,z
-y,x,-z
y,x,-z
-y,-x,-z
-x,y,z
x,-y,z
loop_
_atom_site_type_symbol
_atom_site_label
_atom_site_fract_x
_atom_site_fract_y
_atom_site_fract_z
Si Si1 0.692936 0.301018 0.359583
Si Si2 0.000000 0.795319 0.200336
Si Si3 0.000000 0.704569 0.301651
Si Si4 0.705698 0.695954 0.046966
Si Si5 0.197899 0.691947 0.546690
Si Si6 0.800643 0.308861 0.857126
O O1 0.500000 0.230566 0.357414
O O2 0.678577 0.500000 0.350755
O O3 0.759967 0.281852 0.409307
O O4 0.831282 0.230818 0.326163
O O5 0.167909 0.731001 0.175545
O O6 0.000000 0.749427 0.250959
O O7 0.000000 0.000000 0.196623
O O8 0.000000 0.500000 0.305700
O O9 0.500000 0.701565 0.044305
O O10 0.756086 0.500000 0.050354
O O11 0.750390 0.780790 0.092615
O O12 0.765630 0.765630 0.000000
O O13 0.223306 0.776695 0.500000
O O14 0.261096 0.500000 0.541525
O O15 0.000000 0.689795 0.556051
O O16 0.728550 0.500000 0.853190
O O17 0.000000 0.322220 0.848495
#
# Coordination Sequence:
#
# PCOD9557182 Si02
#       6
#     8   4   4   8   8   8
#     4   9  19  37  58  79 108 145 181 224 279 333
#     4  10  22  38  54  76 106 138 178 222 274 331
#     4  10  22  38  58  82 106 136 180 234 280 325
#     4   8  14  27  48  73 101 133 170 213 262 313
#     4  10  21  35  53  80 112 146 184 223 266 324
#     4   9  18  34  53  72 102 140 175 216 268 328
#
# _framework density 20.866012999999999
#
# number of rings (size 3 to 8) (size 9 to 14) (size 15 to 20)
#    0.000    2.800    0.000    1.200    1.400    3.600 
#    1.800    0.000    0.000    0.000    0.000    0.000 
#    0.000    0.000    0.000    0.000    0.000    0.000 
#
# Total GULP energy -222950.666550 kJ/mol
# GULP energy per Si atom -5573.766664 kJ/mol
# Density = 2.081852 g / cm^3
# Si number density = 20.866013 Si / 1000 Ang^3
#
#
#
# Elastic Constant Matrix: (Units=GPa)
#
#
# Indices 1 2 3 4 5 6 
#
# 1 46.5245 24.3687 47.1722 0.0000 0.0000 0.0000
# 2 24.3687 46.5245 47.1717 0.0000 0.0000 0.0000
# 3 47.1722 47.1717 166.7608 0.0000 0.0000 0.0000
# 4 0.0000 0.0000 0.0000 36.1810 0.0000 0.0000
# 5 0.0000 0.0000 0.0000 0.0000 36.1811 0.0000
# 6 0.0000 0.0000 0.0000 0.0000 0.0000 5.1160
#
#
#
# Elastic Compliance Matrix: (Units=1/GPa)
#
#
# Indices 1 2 3 4 5 6 
#
# 1 0.033878 -0.011257 -0.006399 0.000000 0.000000 0.000000
# 2 -0.011257 0.033878 -0.006399 0.000000 0.000000 0.000000
# 3 -0.006399 -0.006399 0.009617 0.000000 0.000000 0.000000
# 4 0.000000 0.000000 0.000000 0.027639 0.000000 0.000000
# 5 0.000000 0.000000 0.000000 0.000000 0.027639 0.000000
# 6 0.000000 0.000000 0.000000 0.000000 0.000000 0.195466
#
#
# Mechanical properties :
#
#
# Convention : Reuss Voigt Hill
#
# Bulk Modulus (GPa) = 34.17201 55.24833 44.71017
# Shear Modulus (GPa) = 12.95403 24.90211 18.92807
#
# Velocity S-wave (km/s) = 2.49433 3.45835 3.01512
# Velocity P-wave (km/s) = 4.97071 6.51783 5.79612
#
# Compressibility (1/GPa) = 0.02926372
#
# Stress axis : x y z
#
# Youngs Moduli (GPa) = 29.51746 29.51774 103.98495
#
# Poissons Ratio (x) = 0.33227 0.66541
# Poissons Ratio (y) = 0.33227 0.66538
# Poissons Ratio (z) = 0.18888 0.18888
#
# Static dielectric constant tensor:
#      x y z
#    x 1.775040 0.000000 0.000000 
#    y 0.000000 1.775040 0.000000 
#    z 0.000000 0.000000 1.731370 
# 
# From -- ./inp_files/5546.got.cif
#   From: 2010.05.17/outbox.cif.g08.bks.cpg/sg115_3_cif.got.tgz:5546.got - 2010.05.20 11:07:42.
