data_PCOD9557991
_publ_section_title
;
Structure prediction by ZEFSAII (Michael W. Deem and Ramdas Pophale) SiO2 
 PCOD9557991
Probable space group: P -4 C 2
;
_chemical_formula_sum "Si O2"
_cell_formula_units_Z 40
_cell_length_a 8.716673
_cell_length_b 8.716673
_cell_length_c 20.540560
_cell_angle_alpha 90.000000
_cell_angle_beta 90.000000
_cell_angle_gamma 90.000000
_cell_volume 1560.679722
_symmetry_space_group_name_H-M "P -4 C 2"
_symmetry_group_IT_number 116
_symmetry_cell_setting 'tetragonal'
loop_
_space_group_symop_operation_xyz
x,y,z
y,-x,-z
-x,-y,z
-y,x,-z
y,x,1/2-z
-y,-x,1/2-z
-x,y,1/2+z
x,-y,1/2+z
loop_
_atom_site_type_symbol
_atom_site_label
_atom_site_fract_x
_atom_site_fract_y
_atom_site_fract_z
Si Si1 0.321316 0.524205 0.889429
Si Si2 0.822609 0.839211 0.404873
Si Si3 0.839940 0.404289 0.262187
Si Si4 0.710599 0.864531 0.549229
Si Si5 0.096975 0.369040 0.622414
O O1 0.500000 0.500000 0.906304
O O2 0.289094 0.702846 0.887624
O O3 0.275955 0.459588 0.818028
O O4 0.187386 0.463973 0.939655
O O5 0.777342 0.891005 0.478040
O O6 0.995040 0.773910 0.407102
O O7 0.771984 0.981695 0.360783
O O8 0.775928 0.224073 0.250000
O O9 0.836989 0.448056 0.186535
O O10 0.000000 0.500000 0.282097
O O11 0.779811 0.706097 0.576807
O O12 0.000000 0.500000 0.587305
#
# Coordination Sequence:
#
# PCOD9557991 Si02
#       5
#     8   8   8   8   8
#     4  12  29  50  78 117 157 215 279 339 420 499
#     4  12  27  45  80 115 162 214 265 344 419 510
#     4  11  25  52  81 112 162 209 276 344 409 501
#     4  12  25  47  75 116 162 204 271 330 423 500
#     4  11  25  47  75 114 156 214 265 336 410 491
#
# _framework density 25.629860000000001
#
# number of rings (size 3 to 8) (size 9 to 14) (size 15 to 20)
#    0.000    0.400    4.000    3.600    8.400    0.400 
#    0.000    5.000    0.000    0.000    0.000    0.000 
#    0.000    0.000    0.000    0.000    0.000    0.000 
#
# Total GULP energy -222781.453085 kJ/mol
# GULP energy per Si atom -5569.536327 kJ/mol
# Density = 2.557153 g / cm^3
# Si number density = 25.629860 Si / 1000 Ang^3
#
#
#
# Elastic Constant Matrix: (Units=GPa)
#
#
# Indices 1 2 3 4 5 6 
#
# 1 130.4260 26.1164 13.5254 0.0000 0.0000 0.0000
# 2 26.1164 130.4263 13.5252 0.0000 0.0000 0.0000
# 3 13.5254 13.5252 62.8043 0.0000 0.0000 0.0000
# 4 0.0000 0.0000 0.0000 27.9704 0.0000 0.0000
# 5 0.0000 0.0000 0.0000 0.0000 27.9703 0.0000
# 6 0.0000 0.0000 0.0000 0.0000 0.0000 56.0566
#
#
#
# Elastic Compliance Matrix: (Units=1/GPa)
#
#
# Indices 1 2 3 4 5 6 
#
# 1 0.008111 -0.001476 -0.001429 0.000000 0.000000 0.000000
# 2 -0.001476 0.008111 -0.001429 0.000000 0.000000 0.000000
# 3 -0.001429 -0.001429 0.016538 0.000000 0.000000 0.000000
# 4 0.000000 0.000000 0.000000 0.035752 0.000000 0.000000
# 5 0.000000 0.000000 0.000000 0.000000 0.035752 0.000000
# 6 0.000000 0.000000 0.000000 0.000000 0.000000 0.017839
#
#
# Mechanical properties :
#
#
# Convention : Reuss Voigt Hill
#
# Bulk Modulus (GPa) = 41.50703 47.77672 44.64188
# Shear Modulus (GPa) = 36.02273 40.43209 38.22741
#
# Velocity S-wave (km/s) = 3.75307 3.97613 3.86621
# Velocity P-wave (km/s) = 5.91698 6.30563 6.11439
#
# Compressibility (1/GPa) = 0.02409230
#
# Stress axis : x y z
#
# Youngs Moduli (GPa) = 123.29080 123.29120 60.46715
#
# Poissons Ratio (x) = 0.18197 0.08640
# Poissons Ratio (y) = 0.18197 0.08640
# Poissons Ratio (z) = 0.17617 0.17617
#
# Static dielectric constant tensor:
#      x y z
#    x 2.168170 0.000000 0.000000 
#    y 0.000000 2.168170 0.000000 
#    z 0.000000 0.000000 2.030780 
# 
# From -- ./inp_files/4429.got.cif
#   From: 2010.05.17/outbox.cif.g08.bks.cpg/sg116_3_cif.got.tgz:4429.got - 2010.05.20 11:11:43.
