data_PCOD9557718
_publ_section_title
;
Structure prediction by ZEFSAII (Michael W. Deem and Ramdas Pophale) SiO2 
 PCOD9557718
Probable space group: P -4 C 2
;
_chemical_formula_sum "Si O2"
_cell_formula_units_Z 34
_cell_length_a 14.187481
_cell_length_b 14.187481
_cell_length_c 8.237649
_cell_angle_alpha 90.000000
_cell_angle_beta 90.000000
_cell_angle_gamma 90.000000
_cell_volume 1658.112025
_symmetry_space_group_name_H-M "P -4 C 2"
_symmetry_group_IT_number 116
_symmetry_cell_setting 'tetragonal'
loop_
_space_group_symop_operation_xyz
x,y,z
y,-x,-z
-x,-y,z
-y,x,-z
y,x,1/2-z
-y,-x,1/2-z
-x,y,1/2+z
x,-y,1/2+z
loop_
_atom_site_type_symbol
_atom_site_label
_atom_site_fract_x
_atom_site_fract_y
_atom_site_fract_z
Si Si1 0.030545 0.608043 0.624568
Si Si2 0.858720 0.634654 0.456316
Si Si3 0.500000 0.500000 0.500000
Si Si4 0.615928 0.615928 0.750000
Si Si5 0.777609 0.573311 0.989671
Si Si6 0.704144 0.295857 0.750000
O O1 0.073090 0.616134 0.802785
O O2 0.120261 0.623498 0.507034
O O3 0.000000 0.500000 0.600176
O O4 0.933459 0.662726 0.593290
O O5 0.801783 0.537924 0.492111
O O6 0.782776 0.708129 0.389866
O O7 0.582229 0.546024 0.606879
O O8 0.717803 0.601435 0.831699
O O9 0.721120 0.608426 0.150269
#
# Coordination Sequence:
#
# PCOD9557718 Si02
#       6
#     8   8   2   4   8   4
#     4   9  18  35  58  86 109 148 194 259 328 376
#     4  10  21  38  60  85 121 154 202 255 323 383
#     4  10  28  42  52  70 112 182 224 258 296 350
#     4  11  26  40  54  76 114 167 226 260 296 359
#     4  10  23  36  58  81 118 158 211 265 313 370
#     4  10  24  38  56  89 122 165 202 254 320 370
#
# _framework density 20.505248000000002
#
# number of rings (size 3 to 8) (size 9 to 14) (size 15 to 20)
#    0.000    2.118    0.000    2.118    9.882    3.765 
#    0.000    0.000    0.000    0.000    0.000    0.000 
#    0.000   61.176    0.000    0.000    0.000    0.000 
#
# Total GULP energy -189777.448423 kJ/mol
# GULP energy per Si atom -5581.689660 kJ/mol
# Density = 2.045858 g / cm^3
# Si number density = 20.505248 Si / 1000 Ang^3
#
#
#
# Elastic Constant Matrix: (Units=GPa)
#
#
# Indices 1 2 3 4 5 6 
#
# 1 70.4410 42.7472 34.6280 0.0000 0.0000 0.0000
# 2 42.7472 70.4413 34.6277 0.0000 0.0000 0.0000
# 3 34.6280 34.6277 92.7460 0.0000 0.0000 0.0000
# 4 0.0000 0.0000 0.0000 43.8376 0.0000 0.0000
# 5 0.0000 0.0000 0.0000 0.0000 43.8372 0.0000
# 6 0.0000 0.0000 0.0000 0.0000 0.0000 17.8566
#
#
#
# Elastic Compliance Matrix: (Units=1/GPa)
#
#
# Indices 1 2 3 4 5 6 
#
# 1 0.023780 -0.012329 -0.004275 0.000000 0.000000 0.000000
# 2 -0.012329 0.023780 -0.004275 0.000000 0.000000 0.000000
# 3 -0.004275 -0.004275 0.013975 0.000000 0.000000 0.000000
# 4 0.000000 0.000000 0.000000 0.022811 0.000000 0.000000
# 5 0.000000 0.000000 0.000000 0.000000 0.022812 0.000000
# 6 0.000000 0.000000 0.000000 0.000000 0.000000 0.056002
#
#
# Mechanical properties :
#
#
# Convention : Reuss Voigt Hill
#
# Bulk Modulus (GPa) = 50.56903 50.84822 50.70863
# Shear Modulus (GPa) = 23.63950 29.21461 26.42706
#
# Velocity S-wave (km/s) = 3.39905 3.77867 3.59387
# Velocity P-wave (km/s) = 6.33402 6.62490 6.48109
#
# Compressibility (1/GPa) = 0.01977495
#
# Stress axis : x y z
#
# Youngs Moduli (GPa) = 42.05220 42.05255 71.55852
#
# Poissons Ratio (x) = 0.51847 0.30594
# Poissons Ratio (y) = 0.51847 0.30593
# Poissons Ratio (z) = 0.17979 0.17978
#
# Static dielectric constant tensor:
#      x y z
#    x 1.791080 0.000000 0.000000 
#    y 0.000000 1.791080 0.000000 
#    z 0.000000 0.000000 1.851860 
# 
# From -- ./inp_files/681.got.cif
#   From: 2010.05.17/outbox.cif.g08.bks.cpg/sg116_1_cif.got.tgz:681.got - 2010.05.20 11:11:43.
