data_PCOD9557165
_publ_section_title
;
Structure prediction by ZEFSAII (Michael W. Deem and Ramdas Pophale) SiO2 
 PCOD9557165
Probable space group: P -4 M 2
;
_chemical_formula_sum "Si O2"
_cell_formula_units_Z 48
_cell_length_a 9.202730
_cell_length_b 9.202730
_cell_length_c 31.769905
_cell_angle_alpha 90.000000
_cell_angle_beta 90.000000
_cell_angle_gamma 90.000000
_cell_volume 2690.600862
_symmetry_space_group_name_H-M "P -4 M 2"
_symmetry_group_IT_number 115
_symmetry_cell_setting 'tetragonal'
loop_
_space_group_symop_operation_xyz
x,y,z
y,-x,-z
-x,-y,z
-y,x,-z
y,x,-z
-y,-x,-z
-x,y,z
x,-y,z
loop_
_atom_site_type_symbol
_atom_site_label
_atom_site_fract_x
_atom_site_fract_y
_atom_site_fract_z
Si Si1 0.173846 0.170300 0.295999
Si Si2 0.825356 0.171003 0.047341
Si Si3 0.326595 0.173142 0.460547
Si Si4 0.673509 0.671370 0.124401
Si Si5 0.327766 0.174032 0.617476
Si Si6 0.326624 0.828020 0.209911
O O1 0.213403 0.263912 0.336786
O O2 0.249782 0.218951 0.252961
O O3 0.000000 0.178827 0.290727
O O4 0.211443 0.000000 0.303175
O O5 0.750819 0.259223 0.084297
O O6 0.000000 0.184415 0.049836
O O7 0.790172 0.000000 0.051852
O O8 0.782267 0.217734 0.000000
O O9 0.248927 0.248927 0.500000
O O10 0.500000 0.196536 0.462609
O O11 0.260429 0.243418 0.418523
O O12 0.300139 0.000000 0.461206
O O13 0.500000 0.696122 0.120867
O O14 0.699735 0.500000 0.126022
O O15 0.722347 0.744812 0.168103
O O16 0.500000 0.201600 0.615256
O O17 0.305240 0.000000 0.611619
O O18 0.500000 0.808129 0.214307
O O19 0.298263 0.000000 0.204398
#
# Coordination Sequence:
#
# PCOD9557165 Si02
#       6
#     8   8   8   8   8   8
#     4   9  18  33  53  77 105 138 177 220 264 310
#     4   9  19  36  56  77 101 131 170 215 261 311
#     4  11  24  40  59  84 112 143 181 223 267 317
#     4  10  21  35  51  75 107 140 174 213 259 313
#     4  10  21  37  57  82 112 145 181 220 264 316
#     4   9  18  33  52  73 100 137 179 219 259 307
#
# _framework density 17.839883
#
# number of rings (size 3 to 8) (size 9 to 14) (size 15 to 20)
#    0.000    2.333    0.000    2.500    0.000    8.333 
#    0.000    5.833    0.000    0.000    0.000    0.000 
#    0.000    0.000    0.000    0.000    0.000    0.000 
#
# Total GULP energy -267956.246326 kJ/mol
# GULP energy per Si atom -5582.421798 kJ/mol
# Density = 1.779928 g / cm^3
# Si number density = 17.839883 Si / 1000 Ang^3
#
#
#
# Elastic Constant Matrix: (Units=GPa)
#
#
# Indices 1 2 3 4 5 6 
#
# 1 65.2932 63.0611 89.2246 0.0000 0.0000 0.0000
# 2 63.0611 65.2931 89.2245 0.0000 0.0000 0.0000
# 3 89.2246 89.2245 210.0310 0.0000 0.0000 0.0000
# 4 0.0000 0.0000 0.0000 128.9804 0.0000 0.0000
# 5 0.0000 0.0000 0.0000 0.0000 128.9752 0.0000
# 6 0.0000 0.0000 0.0000 0.0000 0.0000 25.1714
#
#
#
# Elastic Compliance Matrix: (Units=1/GPa)
#
#
# Indices 1 2 3 4 5 6 
#
# 1 0.233519 -0.214489 -0.008084 0.000000 0.000000 0.000000
# 2 -0.214489 0.233520 -0.008085 0.000000 0.000000 0.000000
# 3 -0.008084 -0.008085 0.011630 0.000000 0.000000 0.000000
# 4 0.000000 0.000000 0.000000 0.007753 0.000000 0.000000
# 5 0.000000 0.000000 0.000000 0.000000 0.007753 0.000000
# 6 0.000000 0.000000 0.000000 0.000000 0.000000 0.039728
#
#
# Mechanical properties :
#
#
# Convention : Reuss Voigt Hill
#
# Bulk Modulus (GPa) = 57.62551 91.51530 74.57040
# Shear Modulus (GPa) = 4.99499 63.23255 34.11377
#
# Velocity S-wave (km/s) = 1.67511 5.95999 4.37764
# Velocity P-wave (km/s) = 6.00940 9.93838 8.21232
#
# Compressibility (1/GPa) = 0.01735342
#
# Stress axis : x y z
#
# Youngs Moduli (GPa) = 4.28231 4.28229 85.98336
#
# Poissons Ratio (x) = 0.91850 0.69513
# Poissons Ratio (y) = 0.91851 0.69516
# Poissons Ratio (z) = 0.03462 0.03462
#
# Static dielectric constant tensor:
#      x y z
#    x 1.594520 0.000000 0.000000 
#    y 0.000000 1.594520 0.000000 
#    z 0.000000 0.000000 1.583970 
# 
# From -- ./inp_files/5919.got.cif
#   From: 2010.05.17/outbox.cif.g08.bks.cpg/sg115_3_cif.got.tgz:5919.got - 2010.05.20 11:07:42.
