data_PCOD9557905
_publ_section_title
;
Structure prediction by ZEFSAII (Michael W. Deem and Ramdas Pophale) SiO2 
 PCOD9557905
Probable space group: P -4 C 2
;
_chemical_formula_sum "Si O2"
_cell_formula_units_Z 48
_cell_length_a 13.987984
_cell_length_b 13.987984
_cell_length_c 11.226397
_cell_angle_alpha 90.000000
_cell_angle_beta 90.000000
_cell_angle_gamma 90.000000
_cell_volume 2196.598334
_symmetry_space_group_name_H-M "P -4 C 2"
_symmetry_group_IT_number 116
_symmetry_cell_setting 'tetragonal'
loop_
_space_group_symop_operation_xyz
x,y,z
y,-x,-z
-x,-y,z
-y,x,-z
y,x,1/2-z
-y,-x,1/2-z
-x,y,1/2+z
x,-y,1/2+z
loop_
_atom_site_type_symbol
_atom_site_label
_atom_site_fract_x
_atom_site_fract_y
_atom_site_fract_z
Si Si1 0.855191 0.623191 0.820719
Si Si2 0.736231 0.736231 0.250000
Si Si3 0.268017 0.091471 0.923512
Si Si4 0.425297 0.174831 0.100223
Si Si5 0.878618 0.759203 0.028795
Si Si6 0.649390 0.512065 0.541900
Si Si7 0.357538 0.642463 0.250000
O O1 0.892669 0.678634 0.703367
O O2 0.874779 0.509752 0.825337
O O3 0.740556 0.641457 0.822254
O O4 0.890134 0.668107 0.943354
O O5 0.636149 0.757770 0.187201
O O6 0.815693 0.744988 0.146740
O O7 0.221506 0.986964 0.932632
O O8 0.349033 0.112717 0.025092
O O9 0.181893 0.165432 0.949892
O O10 0.478812 0.244235 0.006348
O O11 0.594230 0.414429 0.521858
O O12 0.646141 0.546049 0.676381
#
# Coordination Sequence:
#
# PCOD9557905 Si02
#       7
#     8   4   8   8   8   8   4
#     4  12  24  45  74 101 143 191 233 293 360 446
#     4  10  26  46  68 106 148 182 232 310 356 428
#     4  11  26  49  76 107 143 190 239 304 369 433
#     4  11  25  42  69 101 143 190 238 290 367 429
#     4  11  26  49  76 106 145 183 241 304 369 437
#     4  11  24  36  58  96 135 185 247 294 347 422
#     4  12  20  41  64  90 137 188 232 290 356 416
#
# _framework density 21.851969
#
# number of rings (size 3 to 8) (size 9 to 14) (size 15 to 20)
#    0.000    0.833    5.000    1.000    9.333    2.333 
#    0.000    0.000    0.000    0.000    0.000    0.000 
#    0.000    0.000    0.000    0.000    0.000    0.000 
#
# Total GULP energy -268198.649907 kJ/mol
# GULP energy per Si atom -5587.471873 kJ/mol
# Density = 2.180223 g / cm^3
# Si number density = 21.851969 Si / 1000 Ang^3
#
#
#
# Elastic Constant Matrix: (Units=GPa)
#
#
# Indices 1 2 3 4 5 6 
#
# 1 120.3967 18.3549 31.0311 0.0000 0.0000 0.0000
# 2 18.3549 120.3965 31.0309 0.0000 0.0000 0.0000
# 3 31.0311 31.0309 101.6091 0.0000 0.0000 0.0000
# 4 0.0000 0.0000 0.0000 12.5769 0.0000 0.0000
# 5 0.0000 0.0000 0.0000 0.0000 12.5769 0.0000
# 6 0.0000 0.0000 0.0000 0.0000 0.0000 6.9837
#
#
#
# Elastic Compliance Matrix: (Units=1/GPa)
#
#
# Indices 1 2 3 4 5 6 
#
# 1 0.009074 -0.000726 -0.002549 0.000000 0.000000 0.000000
# 2 -0.000726 0.009074 -0.002549 0.000000 0.000000 0.000000
# 3 -0.002549 -0.002549 0.011399 0.000000 0.000000 0.000000
# 4 0.000000 0.000000 0.000000 0.079511 0.000000 0.000000
# 5 0.000000 0.000000 0.000000 0.000000 0.079511 0.000000
# 6 0.000000 0.000000 0.000000 0.000000 0.000000 0.143190
#
#
# Mechanical properties :
#
#
# Convention : Reuss Voigt Hill
#
# Bulk Modulus (GPa) = 55.87701 55.91511 55.89606
# Shear Modulus (GPa) = 14.31138 23.89321 19.10230
#
# Velocity S-wave (km/s) = 2.56193 3.31027 2.95984
# Velocity P-wave (km/s) = 5.86323 6.34462 6.10867
#
# Compressibility (1/GPa) = 0.01789645
#
# Stress axis : x y z
#
# Youngs Moduli (GPa) = 110.20922 110.20925 87.72928
#
# Poissons Ratio (x) = 0.08004 0.22365
# Poissons Ratio (y) = 0.08004 0.22364
# Poissons Ratio (z) = 0.28095 0.28095
#
# Static dielectric constant tensor:
#      x y z
#    x 1.804040 0.000000 0.000000 
#    y 0.000000 1.804040 0.000000 
#    z 0.000000 0.000000 1.892780 
# 
# From -- ./inp_files/1955.got.cif
#   From: 2010.05.17/outbox.cif.g08.bks.cpg/sg116_1_cif.got.tgz:1955.got - 2010.05.20 11:11:43.
