data_PCOD9557998
_publ_section_title
;
Structure prediction by ZEFSAII (Michael W. Deem and Ramdas Pophale) SiO2 
 PCOD9557998
Probable space group: P -4 C 2
;
_chemical_formula_sum "Si O2"
_cell_formula_units_Z 24
_cell_length_a 10.566984
_cell_length_b 10.566984
_cell_length_c 8.944078
_cell_angle_alpha 90.000000
_cell_angle_beta 90.000000
_cell_angle_gamma 90.000000
_cell_volume 998.706043
_symmetry_space_group_name_H-M "P -4 C 2"
_symmetry_group_IT_number 116
_symmetry_cell_setting 'tetragonal'
loop_
_space_group_symop_operation_xyz
x,y,z
y,-x,-z
-x,-y,z
-y,x,-z
y,x,1/2-z
-y,-x,1/2-z
-x,y,1/2+z
x,-y,1/2+z
loop_
_atom_site_type_symbol
_atom_site_label
_atom_site_fract_x
_atom_site_fract_y
_atom_site_fract_z
Si Si1 0.996065 0.797963 0.208749
Si Si2 0.058419 0.635581 0.461538
Si Si3 0.403964 0.339187 0.424986
O O1 0.862502 0.862502 0.250000
O O2 0.030651 0.666805 0.290167
O O3 0.003723 0.758598 0.037452
O O4 0.101864 0.898137 0.250000
O O5 0.201494 0.638334 0.521238
O O6 0.000000 0.500000 0.495969
O O7 0.346375 0.446496 0.534937
O O8 0.371661 0.371661 0.250000
#
# Coordination Sequence:
#
# PCOD9557998 Si02
#       3
#     8   8   8
#     4  11  26  48  74 106 149 200 248 313 380 448
#     4  12  28  45  76 113 147 200 255 317 378 454
#     4  11  27  49  78 113 153 201 253 319 392 458
#
# _framework density 24.031092999999998
#
# number of rings (size 3 to 8) (size 9 to 14) (size 15 to 20)
#    0.000    0.667    0.000    6.000   18.667    2.667 
#    0.000    0.000    0.000    0.000    0.000    0.000 
#    0.000    0.000    0.000    0.000    0.000    0.000 
#
# Total GULP energy -134190.386565 kJ/mol
# GULP energy per Si atom -5591.266107 kJ/mol
# Density = 2.397640 g / cm^3
# Si number density = 24.031093 Si / 1000 Ang^3
#
#
#
# Elastic Constant Matrix: (Units=GPa)
#
#
# Indices 1 2 3 4 5 6 
#
# 1 101.5341 63.8143 34.7073 0.0000 0.0000 0.0000
# 2 63.8143 101.5329 34.7080 0.0000 0.0000 0.0000
# 3 34.7073 34.7080 101.3194 0.0000 0.0000 0.0000
# 4 0.0000 0.0000 0.0000 38.8907 0.0000 0.0000
# 5 0.0000 0.0000 0.0000 0.0000 38.8909 0.0000
# 6 0.0000 0.0000 0.0000 0.0000 0.0000 30.8623
#
#
#
# Elastic Compliance Matrix: (Units=1/GPa)
#
#
# Indices 1 2 3 4 5 6 
#
# 1 0.016788 -0.009724 -0.002420 0.000000 0.000000 0.000000
# 2 -0.009724 0.016788 -0.002420 0.000000 0.000000 0.000000
# 3 -0.002420 -0.002420 0.011528 0.000000 0.000000 0.000000
# 4 0.000000 0.000000 0.000000 0.025713 0.000000 0.000000
# 5 0.000000 0.000000 0.000000 0.000000 0.025713 0.000000
# 6 0.000000 0.000000 0.000000 0.000000 0.000000 0.032402
#
#
# Mechanical properties :
#
#
# Convention : Reuss Voigt Hill
#
# Bulk Modulus (GPa) = 62.59359 63.42728 63.01044
# Shear Modulus (GPa) = 30.60291 33.13924 31.87107
#
# Velocity S-wave (km/s) = 3.57244 3.71754 3.64571
# Velocity P-wave (km/s) = 6.56658 6.69910 6.63317
#
# Compressibility (1/GPa) = 0.01597608
#
# Stress axis : x y z
#
# Youngs Moduli (GPa) = 59.56800 59.56689 86.74858
#
# Poissons Ratio (x) = 0.57923 0.20989
# Poissons Ratio (y) = 0.57924 0.20992
# Poissons Ratio (z) = 0.14413 0.14414
#
# Static dielectric constant tensor:
#      x y z
#    x 1.934350 0.000000 0.000000 
#    y 0.000000 1.934350 0.000000 
#    z 0.000000 0.000000 1.846170 
# 
# From -- ./inp_files/450.got.cif
#   From: 2010.05.17/outbox.cif.g08.bks.cpg/sg116_1_cif.got.tgz:450.got - 2010.05.20 11:11:43.
