data_PCOD9557109
_publ_section_title
;
Structure prediction by ZEFSAII (Michael W. Deem and Ramdas Pophale) SiO2 
 PCOD9557109
Probable space group: P -4 M 2
;
_chemical_formula_sum "Si O2"
_cell_formula_units_Z 36
_cell_length_a 14.384750
_cell_length_b 14.384750
_cell_length_c 9.364757
_cell_angle_alpha 90.000000
_cell_angle_beta 90.000000
_cell_angle_gamma 90.000000
_cell_volume 1937.765188
_symmetry_space_group_name_H-M "P -4 M 2"
_symmetry_group_IT_number 115
_symmetry_cell_setting 'tetragonal'
loop_
_space_group_symop_operation_xyz
x,y,z
y,-x,-z
-x,-y,z
-y,x,-z
y,x,-z
-y,-x,-z
-x,y,z
x,-y,z
loop_
_atom_site_type_symbol
_atom_site_label
_atom_site_fract_x
_atom_site_fract_y
_atom_site_fract_z
Si Si1 0.778947 0.763175 0.333133
Si Si2 0.895186 0.111284 0.845801
Si Si3 0.398703 0.601298 0.000000
Si Si4 0.109149 0.610535 0.164196
Si Si5 0.395288 0.200832 0.144031
O O1 0.759748 0.759748 0.500000
O O2 0.858207 0.835617 0.287344
O O3 0.819659 0.668398 0.263088
O O4 0.687109 0.803657 0.256344
O O5 0.000000 0.146286 0.831241
O O6 0.897624 0.000000 0.857333
O O7 0.855619 0.144382 0.000000
O O8 0.309413 0.604529 0.900719
O O9 0.500000 0.605702 0.925661
O O10 0.115873 0.500000 0.193071
O O11 0.000000 0.638226 0.180793
O O12 0.141738 0.623540 0.999685
O O13 0.500000 0.176754 0.193961
#
# Coordination Sequence:
#
# PCOD9557109 Si02
#       5
#     8   8   4   8   8
#     4  12  24  35  53  83 119 154 182 221 281 345
#     4   9  19  37  60  82 104 137 187 242 284 323
#     4   9  16  30  58  88 108 131 172 228 280 321
#     4  10  21  39  62  83 107 145 193 240 281 328
#     4  10  20  37  59  84 110 144 192 238 277 321
#
# _framework density 18.578101
#
# number of rings (size 3 to 8) (size 9 to 14) (size 15 to 20)
#    0.000    1.889    2.222    2.667    0.000    5.333 
#    0.000    1.111    0.000    2.667    0.000    1.556 
#    0.000    0.000    0.000    0.000    0.000    0.000 
#
# Total GULP energy -200645.636938 kJ/mol
# GULP energy per Si atom -5573.489915 kJ/mol
# Density = 1.853582 g / cm^3
# Si number density = 18.578101 Si / 1000 Ang^3
#
#
#
# Elastic Constant Matrix: (Units=GPa)
#
#
# Indices 1 2 3 4 5 6 
#
# 1 83.0979 10.4899 37.4580 0.0000 0.0000 0.0000
# 2 10.4899 83.0980 37.4583 0.0000 0.0000 0.0000
# 3 37.4580 37.4583 105.6231 0.0000 0.0000 0.0000
# 4 0.0000 0.0000 0.0000 2.9739 0.0000 0.0000
# 5 0.0000 0.0000 0.0000 0.0000 2.9728 0.0000
# 6 0.0000 0.0000 0.0000 0.0000 0.0000 22.8881
#
#
#
# Elastic Compliance Matrix: (Units=1/GPa)
#
#
# Indices 1 2 3 4 5 6 
#
# 1 0.014347 0.000574 -0.005292 0.000000 0.000000 0.000000
# 2 0.000574 0.014347 -0.005292 0.000000 0.000000 0.000000
# 3 -0.005292 -0.005292 0.013221 0.000000 0.000000 0.000000
# 4 0.000000 0.000000 0.000000 0.336254 0.000000 0.000000
# 5 0.000000 0.000000 0.000000 0.000000 0.336378 0.000000
# 6 0.000000 0.000000 0.000000 0.000000 0.000000 0.043691
#
#
# Mechanical properties :
#
#
# Convention : Reuss Voigt Hill
#
# Bulk Modulus (GPa) = 45.66936 49.18128 47.42532
# Shear Modulus (GPa) = 6.36494 18.19451 12.27972
#
# Velocity S-wave (km/s) = 1.85297 3.13286 2.57374
# Velocity P-wave (km/s) = 5.40497 6.29417 5.86644
#
# Compressibility (1/GPa) = 0.02189652
#
# Stress axis : x y z
#
# Youngs Moduli (GPa) = 69.70209 69.70191 75.63818
#
# Poissons Ratio (x) = -0.04002 0.40024
# Poissons Ratio (y) = -0.04002 0.40025
# Poissons Ratio (z) = 0.36883 0.36884
#
# Static dielectric constant tensor:
#      x y z
#    x 1.683790 0.000000 0.000000 
#    y 0.000000 1.683790 0.000000 
#    z 0.000000 0.000000 1.612940 
# 
# From -- ./inp_files/1485.got.cif
#   From: 2010.05.17/outbox.cif.g08.bks.cpg/sg115_1_cif.got.tgz:1485.got - 2010.05.20 11:07:42.
