data_PCOD9557145
_publ_section_title
;
Structure prediction by ZEFSAII (Michael W. Deem and Ramdas Pophale) SiO2 
 PCOD9557145
Probable space group: P -4 M 2
;
_chemical_formula_sum "Si O2"
_cell_formula_units_Z 48
_cell_length_a 9.447845
_cell_length_b 9.447845
_cell_length_c 31.824437
_cell_angle_alpha 90.000000
_cell_angle_beta 90.000000
_cell_angle_gamma 90.000000
_cell_volume 2840.705740
_symmetry_space_group_name_H-M "P -4 M 2"
_symmetry_group_IT_number 115
_symmetry_cell_setting 'tetragonal'
loop_
_space_group_symop_operation_xyz
x,y,z
y,-x,-z
-x,-y,z
-y,x,-z
y,x,-z
-y,-x,-z
-x,y,z
x,-y,z
loop_
_atom_site_type_symbol
_atom_site_label
_atom_site_fract_x
_atom_site_fract_y
_atom_site_fract_z
Si Si1 0.172522 0.337471 0.372207
Si Si2 0.827399 0.163511 0.453410
Si Si3 0.168344 0.832409 0.711114
Si Si4 0.830556 0.333332 0.795999
Si Si5 0.333321 0.830802 0.964126
Si Si6 0.167269 0.669914 0.131514
O O1 0.218433 0.500000 0.371059
O O2 0.219993 0.258394 0.414524
O O3 0.213177 0.253475 0.330195
O O4 0.000000 0.335942 0.373017
O O5 0.785397 0.214604 0.500000
O O6 0.000000 0.163374 0.453865
O O7 0.783526 0.000000 0.447610
O O8 0.207162 0.743864 0.752314
O O9 0.000000 0.816417 0.703563
O O10 0.194940 0.000000 0.718511
O O11 0.799012 0.500000 0.794024
O O12 0.749838 0.259020 0.834136
O O13 0.000000 0.316560 0.801580
O O14 0.500000 0.798680 0.968546
O O15 0.290689 0.792410 0.916375
O O16 0.316916 0.000000 0.967810
O O17 0.246739 0.753262 0.000000
O O18 0.183202 0.500000 0.135326
O O19 0.000000 0.701465 0.137153
#
# Coordination Sequence:
#
# PCOD9557145 Si02
#       6
#     8   8   8   8   8   8
#     4   9  16  25  40  65  93 117 147 191 235 272
#     4   8  13  22  38  60  85 114 148 184 223 270
#     4   9  17  30  48  68  92 124 158 191 233 285
#     4  10  21  35  51  74 102 129 160 201 247 293
#     4   9  19  35  53  75 103 133 166 204 244 287
#     4   9  19  36  55  74  99 132 168 204 242 287
#
# _framework density 16.897209
#
# number of rings (size 3 to 8) (size 9 to 14) (size 15 to 20)
#    0.000    3.000    0.000    2.500    0.000    5.667 
#    0.000    6.667    0.000    1.000    0.000    4.667 
#    0.000    0.000    0.000    0.000    0.000    0.000 
#
# Total GULP energy -267515.353664 kJ/mol
# GULP energy per Si atom -5573.236535 kJ/mol
# Density = 1.685875 g / cm^3
# Si number density = 16.897209 Si / 1000 Ang^3
#
#
#
# Elastic Constant Matrix: (Units=GPa)
#
#
# Indices 1 2 3 4 5 6 
#
# 1 51.9715 40.5588 82.4494 0.0000 0.0000 0.0000
# 2 40.5588 51.9684 82.4471 0.0000 0.0000 0.0000
# 3 82.4494 82.4471 205.8631 0.0000 0.0000 0.0000
# 4 0.0000 0.0000 0.0000 -14.1380 0.0000 0.0000
# 5 0.0000 0.0000 0.0000 0.0000 -14.1393 0.0000
# 6 0.0000 0.0000 0.0000 0.0000 0.0000 18.8896
#
#
#
# Elastic Compliance Matrix: (Units=1/GPa)
#
#
# Indices 1 2 3 4 5 6 
#
# 1 0.062691 -0.024940 -0.015120 0.000000 0.000000 0.000000
# 2 -0.024940 0.062696 -0.015121 0.000000 0.000000 0.000000
# 3 -0.015120 -0.015121 0.016969 0.000000 0.000000 0.000000
# 4 0.000000 0.000000 0.000000 -0.070732 0.000000 0.000000
# 5 0.000000 0.000000 0.000000 0.000000 -0.070725 0.000000
# 6 0.000000 0.000000 0.000000 0.000000 0.000000 0.052939
#
#
# Mechanical properties :
#
#
# Convention : Reuss Voigt Hill
#
# Bulk Modulus (GPa) = 31.25511 80.07927 55.66719
# Shear Modulus (GPa) = 28.59341 5.07896 16.83619
#
# Velocity S-wave (km/s) = 4.11810 1.73561 3.15999
# Velocity P-wave (km/s) = 6.41475 7.17714 6.80663
#
# Compressibility (1/GPa) = 0.03199477
#
# Stress axis : x y z
#
# Youngs Moduli (GPa) = 15.95114 15.95005 58.93117
#
# Poissons Ratio (x) = 0.39780 0.89103
# Poissons Ratio (y) = 0.39782 0.89108
# Poissons Ratio (z) = 0.24118 0.24117
#
# Static dielectric constant tensor:
#      x y z
#    x 1.555640 0.000000 0.000000 
#    y 0.000000 1.555640 0.000000 
#    z 0.000000 0.000000 1.561010 
# 
# From -- ./inp_files/5949.got.cif
#   From: 2010.05.17/outbox.cif.g08.bks.cpg/sg115_3_cif.got.tgz:5949.got - 2010.05.20 11:07:42.
