data_PCOD9557419
_publ_section_title
;
Structure prediction by ZEFSAII (Michael W. Deem and Ramdas Pophale) SiO2 
 PCOD9557419
Probable space group: P -4 M 2
;
_chemical_formula_sum "Si O2"
_cell_formula_units_Z 17
_cell_length_a 11.402557
_cell_length_b 11.402557
_cell_length_c 5.200391
_cell_angle_alpha 90.000000
_cell_angle_beta 90.000000
_cell_angle_gamma 90.000000
_cell_volume 676.146029
_symmetry_space_group_name_H-M "P -4 M 2"
_symmetry_group_IT_number 115
_symmetry_cell_setting 'tetragonal'
loop_
_space_group_symop_operation_xyz
x,y,z
y,-x,-z
-x,-y,z
-y,x,-z
y,x,-z
-y,-x,-z
-x,y,z
x,-y,z
loop_
_atom_site_type_symbol
_atom_site_label
_atom_site_fract_x
_atom_site_fract_y
_atom_site_fract_z
Si Si1 0.751619 0.639265 0.253812
Si Si2 0.000000 0.000000 0.500000
Si Si3 0.640066 0.000000 0.493787
Si Si4 0.817258 0.000000 0.108601
O O1 0.671841 0.671841 0.500000
O O2 0.748608 0.500000 0.204456
O O3 0.882779 0.672818 0.348243
O O4 0.705591 0.705591 0.000000
O O5 0.000000 0.869689 0.606265
O O6 0.500000 0.000000 0.478904
O O7 0.683900 0.000000 0.194931
O O8 0.887631 0.112370 0.000000
#
# Coordination Sequence:
#
# PCOD9557419 Si02
#       4
#     8   1   4   4
#     4  11  26  50  80 114 155 206 262 323 388 459
#     4   8  18  36  64 106 132 184 246 300 374 424
#     4  10  25  49  75 113 156 201 252 318 398 464
#     4   9  20  43  72 108 150 198 257 308 376 455
#
# _framework density 25.142499999999998
#
# number of rings (size 3 to 8) (size 9 to 14) (size 15 to 20)
#    0.000    2.118    0.000    1.412    3.294    6.588 
#    8.471   14.118    0.000    2.824    0.000    0.000 
#    0.000    0.000    0.000    0.000    0.000    0.000 
#
# Total GULP energy -94937.280031 kJ/mol
# GULP energy per Si atom -5584.545884 kJ/mol
# Density = 2.508527 g / cm^3
# Si number density = 25.142500 Si / 1000 Ang^3
#
#
#
# Elastic Constant Matrix: (Units=GPa)
#
#
# Indices 1 2 3 4 5 6 
#
# 1 157.7978 80.1637 79.6688 0.0000 0.0000 0.0000
# 2 80.1637 157.7972 79.6684 0.0000 0.0000 0.0000
# 3 79.6688 79.6684 155.2250 0.0000 0.0000 0.0000
# 4 0.0000 0.0000 0.0000 66.0859 0.0000 0.0000
# 5 0.0000 0.0000 0.0000 0.0000 66.0856 0.0000
# 6 0.0000 0.0000 0.0000 0.0000 0.0000 40.1658
#
#
#
# Elastic Compliance Matrix: (Units=1/GPa)
#
#
# Indices 1 2 3 4 5 6 
#
# 1 0.009642 -0.003239 -0.003286 0.000000 0.000000 0.000000
# 2 -0.003239 0.009642 -0.003286 0.000000 0.000000 0.000000
# 3 -0.003286 -0.003286 0.009816 0.000000 0.000000 0.000000
# 4 0.000000 0.000000 0.000000 0.015132 0.000000 0.000000
# 5 0.000000 0.000000 0.000000 0.000000 0.015132 0.000000
# 6 0.000000 0.000000 0.000000 0.000000 0.000000 0.024897
#
#
# Mechanical properties :
#
#
# Convention : Reuss Voigt Hill
#
# Bulk Modulus (GPa) = 105.52666 105.53576 105.53121
# Shear Modulus (GPa) = 46.71081 49.88873 48.29977
#
# Velocity S-wave (km/s) = 4.31495 4.45931 4.38772
# Velocity P-wave (km/s) = 8.17848 8.28131 8.23006
#
# Compressibility (1/GPa) = 0.00947628
#
# Stress axis : x y z
#
# Youngs Moduli (GPa) = 103.71423 103.71407 101.87939
#
# Poissons Ratio (x) = 0.33594 0.33480
# Poissons Ratio (y) = 0.33594 0.33480
# Poissons Ratio (z) = 0.34083 0.34082
#
# Static dielectric constant tensor:
#      x y z
#    x 1.548230 0.000000 0.000000 
#    y 0.000000 1.548300 0.000000 
#    z 0.000000 0.000000 2.252780 
# 
# From -- ./inp_files/151.got.cif
#   From: 2010.05.17/outbox.cif.g08.bks.cpg/sg115_1_cif.got.tgz:151.got - 2010.05.20 11:07:42.
