data_PCOD9557990
_publ_section_title
;
Structure prediction by ZEFSAII (Michael W. Deem and Ramdas Pophale) SiO2 
 PCOD9557990
Probable space group: P -4 C 2
;
_chemical_formula_sum "Si O2"
_cell_formula_units_Z 40
_cell_length_a 14.849503
_cell_length_b 14.849503
_cell_length_c 8.846503
_cell_angle_alpha 90.000000
_cell_angle_beta 90.000000
_cell_angle_gamma 90.000000
_cell_volume 1950.722378
_symmetry_space_group_name_H-M "P -4 C 2"
_symmetry_group_IT_number 116
_symmetry_cell_setting 'tetragonal'
loop_
_space_group_symop_operation_xyz
x,y,z
y,-x,-z
-x,-y,z
-y,x,-z
y,x,1/2-z
-y,-x,1/2-z
-x,y,1/2+z
x,-y,1/2+z
loop_
_atom_site_type_symbol
_atom_site_label
_atom_site_fract_x
_atom_site_fract_y
_atom_site_fract_z
Si Si1 0.937027 0.587287 0.934599
Si Si2 0.746829 0.430538 0.603001
Si Si3 0.728895 0.610650 0.455667
Si Si4 0.092557 0.318186 0.615619
Si Si5 0.888719 0.944154 0.912204
O O1 0.909407 0.638712 0.782091
O O2 0.000000 0.500000 0.900113
O O3 0.846776 0.566709 0.029994
O O4 0.001894 0.649443 0.033870
O O5 0.700818 0.523429 0.551789
O O6 0.688239 0.346266 0.545107
O O7 0.748945 0.420421 0.783813
O O8 0.820498 0.646994 0.527749
O O9 0.092302 0.210930 0.606944
O O10 0.933258 0.933258 0.750000
O O11 0.952954 0.891078 0.029289
#
# Coordination Sequence:
#
# PCOD9557990 Si02
#       5
#     8   8   8   8   8
#     4  12  25  44  70 105 146 185 240 296 364 425
#     4  11  26  48  72 107 140 189 235 297 362 427
#     4  11  26  47  73 104 145 182 242 294 355 438
#     4  12  26  42  70 103 139 192 237 300 358 429
#     4  11  25  46  67  98 139 189 242 295 360 434
#
# _framework density 20.505224999999999
#
# number of rings (size 3 to 8) (size 9 to 14) (size 15 to 20)
#    0.000    0.600    2.000    5.400    5.600    2.800 
#    3.600    2.000    0.000    0.000    0.000    0.000 
#    0.000    0.000    0.000    0.000    0.000    0.000 
#
# Total GULP energy -223814.151924 kJ/mol
# GULP energy per Si atom -5595.353798 kJ/mol
# Density = 2.045855 g / cm^3
# Si number density = 20.505225 Si / 1000 Ang^3
#
#
#
# Elastic Constant Matrix: (Units=GPa)
#
#
# Indices 1 2 3 4 5 6 
#
# 1 129.5013 37.3352 50.3001 0.0000 0.0000 0.0000
# 2 37.3352 129.5013 50.3001 0.0000 0.0000 0.0000
# 3 50.3001 50.3001 98.4381 0.0000 0.0000 0.0000
# 4 0.0000 0.0000 0.0000 36.4817 0.0000 0.0000
# 5 0.0000 0.0000 0.0000 0.0000 36.4817 0.0000
# 6 0.0000 0.0000 0.0000 0.0000 0.0000 30.8220
#
#
#
# Elastic Compliance Matrix: (Units=1/GPa)
#
#
# Indices 1 2 3 4 5 6 
#
# 1 0.009757 -0.001093 -0.004427 0.000000 0.000000 0.000000
# 2 -0.001093 0.009757 -0.004427 0.000000 0.000000 0.000000
# 3 -0.004427 -0.004427 0.014683 0.000000 0.000000 0.000000
# 4 0.000000 0.000000 0.000000 0.027411 0.000000 0.000000
# 5 0.000000 0.000000 0.000000 0.000000 0.027411 0.000000
# 6 0.000000 0.000000 0.000000 0.000000 0.000000 0.032444
#
#
# Mechanical properties :
#
#
# Convention : Reuss Voigt Hill
#
# Bulk Modulus (GPa) = 69.92003 70.36793 70.14398
# Shear Modulus (GPa) = 34.21774 35.39078 34.80426
#
# Velocity S-wave (km/s) = 4.08944 4.15895 4.12434
# Velocity P-wave (km/s) = 7.51470 7.57985 7.54734
#
# Compressibility (1/GPa) = 0.01430205
#
# Stress axis : x y z
#
# Youngs Moduli (GPa) = 102.49520 102.49520 68.10788
#
# Poissons Ratio (x) = 0.11207 0.30149
# Poissons Ratio (y) = 0.11207 0.30149
# Poissons Ratio (z) = 0.45372 0.45372
#
# Static dielectric constant tensor:
#      x y z
#    x 1.718610 0.000000 0.000000 
#    y 0.000000 1.718610 0.000000 
#    z 0.000000 0.000000 1.742150 
# 
# From -- ./inp_files/778.got.cif
#   From: 2010.05.17/outbox.cif.g08.bks.cpg/sg116_1_cif.got.tgz:778.got - 2010.05.20 11:11:43.
