data_PCOD9557697
_publ_section_title
;
Structure prediction by ZEFSAII (Michael W. Deem and Ramdas Pophale) SiO2 
 PCOD9557697
Probable space group: P -4 C 2
;
_chemical_formula_sum "Si O2"
_cell_formula_units_Z 52
_cell_length_a 20.595871
_cell_length_b 20.595871
_cell_length_c 5.652149
_cell_angle_alpha 90.000000
_cell_angle_beta 90.000000
_cell_angle_gamma 90.000000
_cell_volume 2397.584532
_symmetry_space_group_name_H-M "P -4 C 2"
_symmetry_group_IT_number 116
_symmetry_cell_setting 'tetragonal'
loop_
_space_group_symop_operation_xyz
x,y,z
y,-x,-z
-x,-y,z
-y,x,-z
y,x,1/2-z
-y,-x,1/2-z
-x,y,1/2+z
x,-y,1/2+z
loop_
_atom_site_type_symbol
_atom_site_label
_atom_site_fract_x
_atom_site_fract_y
_atom_site_fract_z
Si Si1 0.754531 0.152097 0.134432
Si Si2 0.657702 0.760906 0.853978
Si Si3 0.879783 0.532895 0.320188
Si Si4 0.653518 0.963442 0.095051
Si Si5 0.262346 0.262346 0.250000
Si Si6 0.734192 0.514413 0.799319
Si Si7 0.993174 0.794128 0.916203
O O1 0.820539 0.179462 0.250000
O O2 0.693741 0.171396 0.299101
O O3 0.761567 0.077738 0.080082
O O4 0.743675 0.199532 0.914874
O O5 0.705347 0.705347 0.750000
O O6 0.588869 0.755120 0.736800
O O7 0.667873 0.745266 0.127839
O O8 0.901918 0.494629 0.561555
O O9 0.903156 0.606274 0.356982
O O10 0.801871 0.525497 0.315097
O O11 0.639049 0.007432 0.331972
O O12 0.732150 0.957911 0.091065
O O13 0.700382 0.494948 0.552601
O O14 0.998585 0.829722 0.665393
#
# Coordination Sequence:
#
# PCOD9557697 Si02
#       7
#     8   8   8   8   4   8   8
#     4   9  20  37  60  85 112 156 207 259 309 358
#     4   9  20  37  60  85 112 156 207 259 309 358
#     4  10  21  36  49  66  99 147 195 232 268 317
#     4  10  21  36  49  66  99 147 195 232 268 317
#     4   8  18  36  64  78 108 154 212 264 318 348
#     4  10  23  36  54  83 116 149 190 242 295 356
#     4  10  23  36  54  83 116 149 190 242 295 356
#
# _framework density 21.688495
#
# number of rings (size 3 to 8) (size 9 to 14) (size 15 to 20)
#    0.000    2.769    0.000    0.923    8.615   11.692 
#    2.769    0.000    0.000    0.000    0.000    0.000 
#    0.000    3.692    0.000    0.000    0.000    0.000 
#
# Total GULP energy -289752.066262 kJ/mol
# GULP energy per Si atom -5572.155120 kJ/mol
# Density = 2.163913 g / cm^3
# Si number density = 21.688495 Si / 1000 Ang^3
#
#
#
# Elastic Constant Matrix: (Units=GPa)
#
#
# Indices 1 2 3 4 5 6 
#
# 1 31.4377 3.7452 14.9445 0.0000 0.0000 0.0000
# 2 3.7452 31.4376 14.9447 0.0000 0.0000 0.0000
# 3 14.9445 14.9447 186.3749 0.0000 0.0000 0.0000
# 4 0.0000 0.0000 0.0000 15.6561 0.0000 0.0000
# 5 0.0000 0.0000 0.0000 0.0000 15.6555 0.0000
# 6 0.0000 0.0000 0.0000 0.0000 0.0000 19.9002
#
#
#
# Elastic Compliance Matrix: (Units=1/GPa)
#
#
# Indices 1 2 3 4 5 6 
#
# 1 0.033306 -0.002805 -0.002446 0.000000 0.000000 0.000000
# 2 -0.002805 0.033306 -0.002446 0.000000 0.000000 0.000000
# 3 -0.002446 -0.002446 0.005758 0.000000 0.000000 0.000000
# 4 0.000000 0.000000 0.000000 0.063873 0.000000 0.000000
# 5 0.000000 0.000000 0.000000 0.000000 0.063875 0.000000
# 6 0.000000 0.000000 0.000000 0.000000 0.000000 0.050251
#
#
# Mechanical properties :
#
#
# Convention : Reuss Voigt Hill
#
# Bulk Modulus (GPa) = 17.55119 35.16878 26.35998
# Shear Modulus (GPa) = 17.55904 24.61674 21.08789
#
# Velocity S-wave (km/s) = 2.84844 3.37265 3.12157
# Velocity P-wave (km/s) = 4.35064 5.60509 5.01722
#
# Compressibility (1/GPa) = 0.05697620
#
# Stress axis : x y z
#
# Youngs Moduli (GPa) = 30.02492 30.02471 173.67889
#
# Poissons Ratio (x) = 0.08422 0.42476
# Poissons Ratio (y) = 0.08422 0.42478
# Poissons Ratio (z) = 0.07343 0.07343
#
# Static dielectric constant tensor:
#      x y z
#    x 1.793900 0.000000 0.000000 
#    y 0.000000 1.793900 0.000000 
#    z 0.000000 0.000000 2.038670 
# 
# From -- ./inp_files/210.got.cif
#   From: 2010.05.17/outbox.cif.g08.bks.cpg/sg116_1_cif.got.tgz:210.got - 2010.05.20 11:11:43.
