data_PCOD9557534
_publ_section_title
;
Structure prediction by ZEFSAII (Michael W. Deem and Ramdas Pophale) SiO2 
 PCOD9557534
Probable space group: P -4 C 2
;
_chemical_formula_sum "Si O2"
_cell_formula_units_Z 40
_cell_length_a 16.407756
_cell_length_b 16.407756
_cell_length_c 8.724156
_cell_angle_alpha 90.000000
_cell_angle_beta 90.000000
_cell_angle_gamma 90.000000
_cell_volume 2348.668920
_symmetry_space_group_name_H-M "P -4 C 2"
_symmetry_group_IT_number 116
_symmetry_cell_setting 'tetragonal'
loop_
_space_group_symop_operation_xyz
x,y,z
y,-x,-z
-x,-y,z
-y,x,-z
y,x,1/2-z
-y,-x,1/2-z
-x,y,1/2+z
x,-y,1/2+z
loop_
_atom_site_type_symbol
_atom_site_label
_atom_site_fract_x
_atom_site_fract_y
_atom_site_fract_z
Si Si1 0.394009 0.044112 0.226796
Si Si2 0.272160 0.560983 0.580943
Si Si3 0.557911 0.899486 0.564067
Si Si4 0.309472 0.370735 0.588946
Si Si5 0.317923 0.200032 0.169487
O O1 0.421488 0.060389 0.400173
O O2 0.466885 0.080218 0.120184
O O3 0.319849 0.103366 0.188656
O O4 0.387508 0.949140 0.186133
O O5 0.196680 0.567559 0.460547
O O6 0.294432 0.467088 0.604802
O O7 0.347786 0.613457 0.519223
O O8 0.237475 0.605508 0.732739
O O9 0.329883 0.329883 0.750000
O O10 0.232890 0.330748 0.501270
O O11 0.240462 0.240462 0.250000
#
# Coordination Sequence:
#
# PCOD9557534 Si02
#       5
#     8   8   8   8   8
#     4  10  18  30  49  71  98 121 159 204 254 297
#     4  10  21  35  47  65  92 120 164 210 258 296
#     4  10  19  29  48  70  93 118 154 206 244 302
#     4  11  21  32  51  64  83 124 164 214 254 298
#     4   9  19  34  47  67  98 127 162 205 251 299
#
# _framework density 17.030923000000001
#
# number of rings (size 3 to 8) (size 9 to 14) (size 15 to 20)
#    0.000    2.000    2.000    3.600    2.800    2.000 
#    0.000    1.000    0.000    0.000    0.000    0.000 
#    0.000    0.000    0.000    0.000    0.000  286.000 
#
# Total GULP energy -223039.194180 kJ/mol
# GULP energy per Si atom -5575.979855 kJ/mol
# Density = 1.699216 g / cm^3
# Si number density = 17.030923 Si / 1000 Ang^3
#
#
#
# Elastic Constant Matrix: (Units=GPa)
#
#
# Indices 1 2 3 4 5 6 
#
# 1 57.3919 30.5720 5.2512 0.0000 0.0000 0.0000
# 2 30.5720 57.3919 5.2512 0.0000 0.0000 0.0000
# 3 5.2512 5.2512 57.7177 0.0000 0.0000 0.0000
# 4 0.0000 0.0000 0.0000 21.0205 0.0000 0.0000
# 5 0.0000 0.0000 0.0000 0.0000 21.0205 0.0000
# 6 0.0000 0.0000 0.0000 0.0000 0.0000 19.6586
#
#
#
# Elastic Compliance Matrix: (Units=1/GPa)
#
#
# Indices 1 2 3 4 5 6 
#
# 1 0.024389 -0.012896 -0.001046 0.000000 0.000000 0.000000
# 2 -0.012896 0.024389 -0.001046 0.000000 0.000000 0.000000
# 3 -0.001046 -0.001046 0.017516 0.000000 0.000000 0.000000
# 4 0.000000 0.000000 0.000000 0.047573 0.000000 0.000000
# 5 0.000000 0.000000 0.000000 0.000000 0.047573 0.000000
# 6 0.000000 0.000000 0.000000 0.000000 0.000000 0.050868
#
#
# Mechanical properties :
#
#
# Convention : Reuss Voigt Hill
#
# Bulk Modulus (GPa) = 27.53332 28.29449 27.91390
# Shear Modulus (GPa) = 19.65482 21.10170 20.37826
#
# Velocity S-wave (km/s) = 3.40084 3.52379 3.46286
# Velocity P-wave (km/s) = 5.62341 5.76245 5.69335
#
# Compressibility (1/GPa) = 0.03631964
#
# Stress axis : x y z
#
# Youngs Moduli (GPa) = 41.00133 41.00133 57.09071
#
# Poissons Ratio (x) = 0.52877 0.05970
# Poissons Ratio (y) = 0.52877 0.05970
# Poissons Ratio (z) = 0.04287 0.04287
#
# Static dielectric constant tensor:
#      x y z
#    x 1.604030 0.000000 0.000000 
#    y 0.000000 1.604030 0.000000 
#    z 0.000000 0.000000 1.632660 
# 
# From -- ./inp_files/894.got.cif
#   From: 2010.05.17/outbox.cif.g08.bks.cpg/sg116_1_cif.got.tgz:894.got - 2010.05.20 11:11:43.
