data_PCOD9557133
_publ_section_title
;
Structure prediction by ZEFSAII (Michael W. Deem and Ramdas Pophale) SiO2 
 PCOD9557133
Probable space group: P -4 M 2
;
_chemical_formula_sum "Si O2"
_cell_formula_units_Z 44
_cell_length_a 9.281249
_cell_length_b 9.281249
_cell_length_c 29.454899
_cell_angle_alpha 90.000000
_cell_angle_beta 90.000000
_cell_angle_gamma 90.000000
_cell_volume 2537.291627
_symmetry_space_group_name_H-M "P -4 M 2"
_symmetry_group_IT_number 115
_symmetry_cell_setting 'tetragonal'
loop_
_space_group_symop_operation_xyz
x,y,z
y,-x,-z
-x,-y,z
-y,x,-z
y,x,-z
-y,-x,-z
-x,y,z
x,-y,z
loop_
_atom_site_type_symbol
_atom_site_label
_atom_site_fract_x
_atom_site_fract_y
_atom_site_fract_z
Si Si1 0.672134 0.669744 0.866463
Si Si2 0.170700 0.328036 0.041157
Si Si3 0.326773 0.672038 0.599441
Si Si4 0.830308 0.172731 0.318057
Si Si5 0.672580 0.672580 0.500000
Si Si6 0.669908 0.172172 0.225996
O O1 0.500000 0.684195 0.860708
O O2 0.704009 0.500000 0.873838
O O3 0.715305 0.758896 0.910828
O O4 0.750235 0.715816 0.820285
O O5 0.195728 0.500000 0.035653
O O6 0.000000 0.303120 0.041730
O O7 0.244966 0.244966 0.000000
O O8 0.500000 0.690961 0.601814
O O9 0.299487 0.500000 0.602795
O O10 0.250411 0.754053 0.640045
O O11 0.275694 0.724377 0.549274
O O12 0.758029 0.217090 0.270400
O O13 0.000000 0.203319 0.317551
O O14 0.810506 0.000000 0.322317
O O15 0.694654 0.500000 0.500240
O O16 0.500000 0.203250 0.233147
O O17 0.685400 0.000000 0.220535
#
# Coordination Sequence:
#
# PCOD9557133 Si02
#       6
#     8   8   8   8   4   8
#     4   9  18  33  53  76 101 129 163 205 251 297
#     4  10  21  36  54  77 105 137 172 208 247 294
#     4   9  17  31  53  77  98 124 162 207 252 298
#     4  10  21  35  49  69 101 138 171 203 244 295
#     4   7  12  26  48  73  98 122 154 201 252 297
#     4   9  18  33  52  72  95 127 168 209 246 290
#
# _framework density 17.341325000000001
#
# number of rings (size 3 to 8) (size 9 to 14) (size 15 to 20)
#    0.000    2.818    0.000    2.182    0.000    4.727 
#    0.000    4.545    0.000    4.364    0.000    0.000 
#    0.000    0.000    0.000    0.000    0.000    0.000 
#
# Total GULP energy -245281.269677 kJ/mol
# GULP energy per Si atom -5574.574311 kJ/mol
# Density = 1.730186 g / cm^3
# Si number density = 17.341325 Si / 1000 Ang^3
#
#
#
# Elastic Constant Matrix: (Units=GPa)
#
#
# Indices 1 2 3 4 5 6 
#
# 1 48.2567 45.9302 84.6576 0.0000 0.0000 0.0000
# 2 45.9302 48.2567 84.6576 0.0000 0.0000 0.0000
# 3 84.6576 84.6576 234.6834 0.0000 0.0000 0.0000
# 4 0.0000 0.0000 0.0000 -33.6220 0.0000 0.0000
# 5 0.0000 0.0000 0.0000 0.0000 -33.6220 0.0000
# 6 0.0000 0.0000 0.0000 0.0000 0.0000 21.1352
#
#
#
# Elastic Compliance Matrix: (Units=1/GPa)
#
#
# Indices 1 2 3 4 5 6 
#
# 1 0.230017 -0.199814 -0.010895 0.000000 0.000000 0.000000
# 2 -0.199814 0.230017 -0.010895 0.000000 0.000000 0.000000
# 3 -0.010895 -0.010895 0.012121 0.000000 0.000000 0.000000
# 4 0.000000 0.000000 0.000000 -0.029742 0.000000 0.000000
# 5 0.000000 0.000000 0.000000 0.000000 -0.029742 0.000000
# 6 0.000000 0.000000 0.000000 0.000000 0.000000 0.047314
#
#
# Mechanical properties :
#
#
# Convention : Reuss Voigt Hill
#
# Bulk Modulus (GPa) = 34.54639 84.63199 59.58919
# Shear Modulus (GPa) = 5.47740 -1.49167 1.99286
#
# Velocity S-wave (km/s) = 1.77917 -0.92847 1.07317
# Velocity P-wave (km/s) = 4.91785 6.91087 5.99773
#
# Compressibility (1/GPa) = 0.02894658
#
# Stress axis : x y z
#
# Youngs Moduli (GPa) = 4.34751 4.34751 82.49854
#
# Poissons Ratio (x) = 0.86869 0.89883
# Poissons Ratio (y) = 0.86869 0.89883
# Poissons Ratio (z) = 0.04737 0.04737
#
# Static dielectric constant tensor:
#      x y z
#    x 1.574560 0.000000 0.000000 
#    y 0.000000 1.574560 0.000000 
#    z 0.000000 0.000000 1.581780 
# 
# From -- ./inp_files/5818.got.cif
#   From: 2010.05.17/outbox.cif.g08.bks.cpg/sg115_3_cif.got.tgz:5818.got - 2010.05.20 11:07:42.
