data_PCOD9557630
_publ_section_title
;
Structure prediction by ZEFSAII (Michael W. Deem and Ramdas Pophale) SiO2 
 PCOD9557630
Probable space group: P -4 C 2
;
_chemical_formula_sum "Si O2"
_cell_formula_units_Z 56
_cell_length_a 12.575628
_cell_length_b 12.575628
_cell_length_c 17.994376
_cell_angle_alpha 90.000000
_cell_angle_beta 90.000000
_cell_angle_gamma 90.000000
_cell_volume 2845.746137
_symmetry_space_group_name_H-M "P -4 C 2"
_symmetry_group_IT_number 116
_symmetry_cell_setting 'tetragonal'
loop_
_space_group_symop_operation_xyz
x,y,z
y,-x,-z
-x,-y,z
-y,x,-z
y,x,1/2-z
-y,-x,1/2-z
-x,y,1/2+z
x,-y,1/2+z
loop_
_atom_site_type_symbol
_atom_site_label
_atom_site_fract_x
_atom_site_fract_y
_atom_site_fract_z
Si Si1 0.708102 0.754204 0.411674
Si Si2 0.756545 0.591920 0.780992
Si Si3 0.798442 0.881779 0.673103
Si Si4 0.434168 0.608502 0.661412
Si Si5 0.561287 0.893798 0.321016
Si Si6 0.751332 0.109631 0.705740
Si Si7 0.119611 0.132339 0.516482
O O1 0.629517 0.652704 0.402813
O O2 0.627683 0.848225 0.389602
O O3 0.787420 0.729458 0.343109
O O4 0.791979 0.795288 0.473443
O O5 0.654579 0.654579 0.750000
O O6 0.829362 0.682964 0.815880
O O7 0.710035 0.511285 0.840560
O O8 0.814249 0.524948 0.716182
O O9 0.859292 0.859292 0.750000
O O10 0.863213 0.840429 0.603096
O O11 0.778647 0.005642 0.660753
O O12 0.500000 0.500000 0.650505
O O13 0.395018 0.604983 0.750000
O O14 0.651595 0.913293 0.258465
O O15 0.500000 0.000000 0.339941
O O16 0.856554 0.143447 0.750000
O O17 0.993700 0.144778 0.498229
#
# Coordination Sequence:
#
# PCOD9557630 Si02
#       7
#     8   8   8   8   8   8   8
#     4  11  21  38  65  93 135 178 222 272 347 414
#     4  11  20  34  59  94 129 162 219 271 326 387
#     4  11  25  40  64  95 129 176 223 285 333 408
#     4  11  18  35  67 103 132 168 221 277 336 400
#     4  11  20  33  60  96 129 165 215 277 330 395
#     4  10  20  34  59  95 125 163 220 272 324 402
#     4  11  26  45  66  96 139 185 227 283 355 419
#
# _framework density 19.678495000000002
#
# number of rings (size 3 to 8) (size 9 to 14) (size 15 to 20)
#    0.000    1.143    7.143    0.429    4.000    0.286 
#    0.000    0.000   15.714    0.000    0.000    0.000 
#    0.000    0.000    0.000    0.000    0.000    0.000 
#
# Total GULP energy -311959.422609 kJ/mol
# GULP energy per Si atom -5570.703975 kJ/mol
# Density = 1.963371 g / cm^3
# Si number density = 19.678495 Si / 1000 Ang^3
#
#
#
# Elastic Constant Matrix: (Units=GPa)
#
#
# Indices 1 2 3 4 5 6 
#
# 1 81.4177 31.5006 17.9218 0.0000 0.0000 0.0000
# 2 31.5006 81.4181 17.9221 0.0000 0.0000 0.0000
# 3 17.9218 17.9221 69.0602 0.0000 0.0000 0.0000
# 4 0.0000 0.0000 0.0000 16.3362 0.0000 0.0000
# 5 0.0000 0.0000 0.0000 0.0000 16.3372 0.0000
# 6 0.0000 0.0000 0.0000 0.0000 0.0000 36.3300
#
#
#
# Elastic Compliance Matrix: (Units=1/GPa)
#
#
# Indices 1 2 3 4 5 6 
#
# 1 0.014842 -0.005191 -0.002505 0.000000 0.000000 0.000000
# 2 -0.005191 0.014842 -0.002505 0.000000 0.000000 0.000000
# 3 -0.002505 -0.002505 0.015780 0.000000 0.000000 0.000000
# 4 0.000000 0.000000 0.000000 0.061214 0.000000 0.000000
# 5 0.000000 0.000000 0.000000 0.000000 0.061210 0.000000
# 6 0.000000 0.000000 0.000000 0.000000 0.000000 0.027525
#
#
# Mechanical properties :
#
#
# Convention : Reuss Voigt Hill
#
# Bulk Modulus (GPa) = 39.89820 40.73169 40.31494
# Shear Modulus (GPa) = 22.30471 24.77080 23.53775
#
# Velocity S-wave (km/s) = 3.37034 3.55177 3.46224
# Velocity P-wave (km/s) = 5.95522 6.12892 6.04269
#
# Compressibility (1/GPa) = 0.02506379
#
# Stress axis : x y z
#
# Youngs Moduli (GPa) = 67.37600 67.37625 63.37121
#
# Poissons Ratio (x) = 0.34976 0.15871
# Poissons Ratio (y) = 0.34975 0.15872
# Poissons Ratio (z) = 0.16874 0.16875
#
# Static dielectric constant tensor:
#      x y z
#    x 2.269610 0.000000 0.000000 
#    y 0.000000 2.269470 0.000000 
#    z 0.000000 0.000000 1.706430 
# 
# From -- ./inp_files/4120.got.cif
#   From: 2010.05.17/outbox.cif.g08.bks.cpg/sg116_3_cif.got.tgz:4120.got - 2010.05.20 11:11:43.
