data_PCOD9557561
_publ_section_title
;
Structure prediction by ZEFSAII (Michael W. Deem and Ramdas Pophale) SiO2 
 PCOD9557561
Probable space group: P -4 C 2
;
_chemical_formula_sum "Si O2"
_cell_formula_units_Z 40
_cell_length_a 16.830275
_cell_length_b 16.830275
_cell_length_c 5.574851
_cell_angle_alpha 90.000000
_cell_angle_beta 90.000000
_cell_angle_gamma 90.000000
_cell_volume 1579.122017
_symmetry_space_group_name_H-M "P -4 C 2"
_symmetry_group_IT_number 116
_symmetry_cell_setting 'tetragonal'
loop_
_space_group_symop_operation_xyz
x,y,z
y,-x,-z
-x,-y,z
-y,x,-z
y,x,1/2-z
-y,-x,1/2-z
-x,y,1/2+z
x,-y,1/2+z
loop_
_atom_site_type_symbol
_atom_site_label
_atom_site_fract_x
_atom_site_fract_y
_atom_site_fract_z
Si Si1 0.266340 0.853105 0.168074
Si Si2 0.547146 0.319581 0.763432
Si Si3 0.699069 0.860310 0.165932
Si Si4 0.873353 0.459948 0.713892
Si Si5 0.828215 0.989756 0.134528
O O1 0.184921 0.815080 0.250000
O O2 0.321892 0.833282 0.394998
O O3 0.243733 0.944826 0.134407
O O4 0.288836 0.813464 0.915796
O O5 0.628257 0.371744 0.750000
O O6 0.497697 0.338389 0.517183
O O7 0.555162 0.222873 0.766613
O O8 0.624623 0.913977 0.240312
O O9 0.780981 0.907496 0.138629
O O10 0.892481 0.487245 0.445716
O O11 0.871961 0.999049 0.385002
#
# Coordination Sequence:
#
# PCOD9557561 Si02
#       5
#     8   8   8   8   8
#     4  10  19  31  51  80 108 135 171 215 267 317
#     4  10  21  35  51  72  97 127 165 211 262 316
#     4  10  19  34  54  75 106 141 175 215 266 316
#     4  10  21  37  54  74 102 136 176 220 264 315
#     4   8  16  30  49  70 102 137 167 209 259 306
#
# _framework density 25.330532000000002
#
# number of rings (size 3 to 8) (size 9 to 14) (size 15 to 20)
#    0.000    2.400    0.000    2.400    0.000    2.800 
#    0.000    0.000    0.000   32.400    0.000    0.000 
#    0.000  194.400    0.000    0.000    0.000    0.000 
#
# Total GULP energy -222834.434881 kJ/mol
# GULP energy per Si atom -5570.860872 kJ/mol
# Density = 2.527288 g / cm^3
# Si number density = 25.330532 Si / 1000 Ang^3
#
#
#
# Elastic Constant Matrix: (Units=GPa)
#
#
# Indices 1 2 3 4 5 6 
#
# 1 23.0408 22.2825 27.2881 0.0000 0.0000 0.0000
# 2 22.2825 23.0484 27.2884 0.0000 0.0000 0.0000
# 3 27.2881 27.2884 310.3049 0.0000 0.0000 0.0000
# 4 0.0000 0.0000 0.0000 30.9836 0.0000 0.0000
# 5 0.0000 0.0000 0.0000 0.0000 30.9840 0.0000
# 6 0.0000 0.0000 0.0000 0.0000 0.0000 22.2621
#
#
#
# Elastic Compliance Matrix: (Units=1/GPa)
#
#
# Indices 1 2 3 4 5 6 
#
# 1 0.668505 -0.643709 -0.002180 0.000000 0.000000 0.000000
# 2 -0.643709 0.668261 -0.002160 0.000000 0.000000 0.000000
# 3 -0.002180 -0.002160 0.003604 0.000000 0.000000 0.000000
# 4 0.000000 0.000000 0.000000 0.032275 0.000000 0.000000
# 5 0.000000 0.000000 0.000000 0.000000 0.032275 0.000000
# 6 0.000000 0.000000 0.000000 0.000000 0.000000 0.044919
#
#
# Mechanical properties :
#
#
# Convention : Reuss Voigt Hill
#
# Bulk Modulus (GPa) = 22.58672 56.67913 39.63293
# Shear Modulus (GPa) = 1.81114 35.48162 18.64638
#
# Velocity S-wave (km/s) = 0.84650 3.74671 2.71610
# Velocity P-wave (km/s) = 3.14509 6.41417 5.05139
#
# Compressibility (1/GPa) = 0.04427380
#
# Stress axis : x y z
#
# Youngs Moduli (GPa) = 1.49588 1.49642 277.44824
#
# Poissons Ratio (x) = 0.96326 0.60487
# Poissons Ratio (y) = 0.96291 0.59919
# Poissons Ratio (z) = 0.00326 0.00323
#
# Static dielectric constant tensor:
#      x y z
#    x 2.091050 0.000000 0.000000 
#    y 0.000000 2.091040 0.000000 
#    z 0.000000 0.000000 2.233750 
# 
# From -- ./inp_files/119.got.cif
#   From: 2010.05.17/outbox.cif.g08.bks.cpg/sg116_1_cif.got.tgz:119.got - 2010.05.20 11:11:43.
