data_PCOD9557778
_publ_section_title
;
Structure prediction by ZEFSAII (Michael W. Deem and Ramdas Pophale) SiO2 
 PCOD9557778
Probable space group: P -4 C 2
;
_chemical_formula_sum "Si O2"
_cell_formula_units_Z 40
_cell_length_a 14.985142
_cell_length_b 14.985142
_cell_length_c 8.187123
_cell_angle_alpha 90.000000
_cell_angle_beta 90.000000
_cell_angle_gamma 90.000000
_cell_volume 1838.455154
_symmetry_space_group_name_H-M "P -4 C 2"
_symmetry_group_IT_number 116
_symmetry_cell_setting 'tetragonal'
loop_
_space_group_symop_operation_xyz
x,y,z
y,-x,-z
-x,-y,z
-y,x,-z
y,x,1/2-z
-y,-x,1/2-z
-x,y,1/2+z
x,-y,1/2+z
loop_
_atom_site_type_symbol
_atom_site_label
_atom_site_fract_x
_atom_site_fract_y
_atom_site_fract_z
Si Si1 0.537254 0.276534 0.171398
Si Si2 0.684520 0.994303 0.425579
Si Si3 0.133195 0.250618 0.358020
Si Si4 0.306266 0.637984 0.983692
Si Si5 0.079863 0.566313 0.309826
O O1 0.607849 0.302923 0.030078
O O2 0.586467 0.288628 0.344451
O O3 0.517905 0.171946 0.164130
O O4 0.443189 0.323957 0.141174
O O5 0.698677 0.928939 0.273373
O O6 0.648386 0.929477 0.565842
O O7 0.760439 0.061602 0.493662
O O8 0.607928 0.063524 0.368058
O O9 0.167937 0.167937 0.250000
O O10 0.221999 0.302532 0.422558
O O11 0.000000 0.500000 0.339262
#
# Coordination Sequence:
#
# PCOD9557778 Si02
#       5
#     8   8   8   8   8
#     4  11  25  43  62  98 136 188 246 292 364 418
#     4  10  22  38  61  99 131 170 226 281 365 440
#     4  11  23  44  69  99 137 185 226 293 366 441
#     4  11  26  43  66  93 139 188 243 301 348 433
#     4  11  21  35  61  94 135 171 222 298 364 435
#
# _framework density 21.757397000000001
#
# number of rings (size 3 to 8) (size 9 to 14) (size 15 to 20)
#    0.000    1.200    2.000    4.200    8.400    0.400 
#    0.000    2.000    0.000    1.800    0.000    0.000 
#    0.000    0.000    0.000    0.000    0.000    0.000 
#
# Total GULP energy -223083.137526 kJ/mol
# GULP energy per Si atom -5577.078438 kJ/mol
# Density = 2.170788 g / cm^3
# Si number density = 21.757397 Si / 1000 Ang^3
#
#
#
# Elastic Constant Matrix: (Units=GPa)
#
#
# Indices 1 2 3 4 5 6 
#
# 1 70.2771 34.5884 16.2859 0.0000 0.0000 0.0000
# 2 34.5884 70.2771 16.2859 0.0000 0.0000 0.0000
# 3 16.2859 16.2859 87.7540 0.0000 0.0000 0.0000
# 4 0.0000 0.0000 0.0000 34.0470 0.0000 0.0000
# 5 0.0000 0.0000 0.0000 0.0000 34.0470 0.0000
# 6 0.0000 0.0000 0.0000 0.0000 0.0000 25.6443
#
#
#
# Elastic Compliance Matrix: (Units=1/GPa)
#
#
# Indices 1 2 3 4 5 6 
#
# 1 0.019070 -0.008950 -0.001878 0.000000 0.000000 0.000000
# 2 -0.008950 0.019070 -0.001878 0.000000 0.000000 0.000000
# 3 -0.001878 -0.001878 0.012093 0.000000 0.000000 0.000000
# 4 0.000000 0.000000 0.000000 0.029371 0.000000 0.000000
# 5 0.000000 0.000000 0.000000 0.000000 0.029371 0.000000
# 6 0.000000 0.000000 0.000000 0.000000 0.000000 0.038995
#
#
# Mechanical properties :
#
#
# Convention : Reuss Voigt Hill
#
# Bulk Modulus (GPa) = 40.29134 40.29204 40.29169
# Shear Modulus (GPa) = 27.52469 29.49087 28.50778
#
# Velocity S-wave (km/s) = 3.56064 3.68563 3.62367
# Velocity P-wave (km/s) = 5.95507 6.05564 6.00557
#
# Compressibility (1/GPa) = 0.02481923
#
# Stress axis : x y z
#
# Youngs Moduli (GPa) = 52.43917 52.43917 82.69554
#
# Poissons Ratio (x) = 0.46935 0.15530
# Poissons Ratio (y) = 0.46935 0.15530
# Poissons Ratio (z) = 0.09848 0.09848
#
# Static dielectric constant tensor:
#      x y z
#    x 1.834560 0.000000 0.000000 
#    y 0.000000 1.834560 0.000000 
#    z 0.000000 0.000000 1.907970 
# 
# From -- ./inp_files/784.got.cif
#   From: 2010.05.17/outbox.cif.g08.bks.cpg/sg116_1_cif.got.tgz:784.got - 2010.05.20 11:11:43.
