data_PCOD9557773
_publ_section_title
;
Structure prediction by ZEFSAII (Michael W. Deem and Ramdas Pophale) SiO2 
 PCOD9557773
Probable space group: P -4 C 2
;
_chemical_formula_sum "Si O2"
_cell_formula_units_Z 40
_cell_length_a 14.104741
_cell_length_b 14.104741
_cell_length_c 8.327874
_cell_angle_alpha 90.000000
_cell_angle_beta 90.000000
_cell_angle_gamma 90.000000
_cell_volume 1656.778222
_symmetry_space_group_name_H-M "P -4 C 2"
_symmetry_group_IT_number 116
_symmetry_cell_setting 'tetragonal'
loop_
_space_group_symop_operation_xyz
x,y,z
y,-x,-z
-x,-y,z
-y,x,-z
y,x,1/2-z
-y,-x,1/2-z
-x,y,1/2+z
x,-y,1/2+z
loop_
_atom_site_type_symbol
_atom_site_label
_atom_site_fract_x
_atom_site_fract_y
_atom_site_fract_z
Si Si1 0.283168 0.059085 0.220565
Si Si2 0.067977 0.583087 0.509935
Si Si3 0.478177 0.743474 0.161129
Si Si4 0.706728 0.635413 0.541458
Si Si5 0.782764 0.122820 0.403796
O O1 0.239245 0.981546 0.338354
O O2 0.351831 0.112524 0.347918
O O3 0.353836 0.000123 0.103724
O O4 0.207484 0.106873 0.098362
O O5 0.150100 0.540681 0.399328
O O6 0.000000 0.500000 0.576896
O O7 0.454694 0.730249 0.346633
O O8 0.393696 0.680274 0.082917
O O9 0.585106 0.712982 0.128074
O O10 0.792563 0.705736 0.584079
O O11 0.844651 0.155350 0.250000
#
# Coordination Sequence:
#
# PCOD9557773 Si02
#       5
#     8   8   8   8   8
#     4  10  22  36  63  98 127 172 216 271 356 428
#     4  11  21  35  61 100 136 166 220 291 359 420
#     4  11  24  42  62  93 131 184 229 285 348 400
#     4  11  24  43  64  87 138 179 233 291 339 403
#     4  11  21  45  67  94 137 175 215 285 349 422
#
# _framework density 24.143243999999999
#
# number of rings (size 3 to 8) (size 9 to 14) (size 15 to 20)
#    0.000    1.200    4.000    3.000    5.600    1.200 
#    0.000   10.000    0.000    1.800    0.000    0.000 
#    0.000    0.000    0.000    0.000    0.000    0.000 
#
# Total GULP energy -222938.879786 kJ/mol
# GULP energy per Si atom -5573.471995 kJ/mol
# Density = 2.408829 g / cm^3
# Si number density = 24.143244 Si / 1000 Ang^3
#
#
#
# Elastic Constant Matrix: (Units=GPa)
#
#
# Indices 1 2 3 4 5 6 
#
# 1 33.4263 12.4171 12.8008 0.0000 0.0000 0.0000
# 2 12.4171 33.4235 12.8004 0.0000 0.0000 0.0000
# 3 12.8008 12.8004 99.8293 0.0000 0.0000 0.0000
# 4 0.0000 0.0000 0.0000 22.1469 0.0000 0.0000
# 5 0.0000 0.0000 0.0000 0.0000 22.1786 0.0000
# 6 0.0000 0.0000 0.0000 0.0000 0.0000 10.7294
#
#
#
# Elastic Compliance Matrix: (Units=1/GPa)
#
#
# Indices 1 2 3 4 5 6 
#
# 1 0.035547 -0.012052 -0.003013 0.000000 0.000000 0.000000
# 2 -0.012052 0.035551 -0.003013 0.000000 0.000000 0.000000
# 3 -0.003013 -0.003013 0.010790 0.000000 0.000000 0.000000
# 4 0.000000 0.000000 0.000000 0.045153 0.000000 0.000000
# 5 0.000000 0.000000 0.000000 0.000000 0.045089 0.000000
# 6 0.000000 0.000000 0.000000 0.000000 0.000000 0.093202
#
#
# Mechanical properties :
#
#
# Convention : Reuss Voigt Hill
#
# Bulk Modulus (GPa) = 21.86671 26.96840 24.41756
# Shear Modulus (GPa) = 15.78624 19.58836 17.68730
#
# Velocity S-wave (km/s) = 2.55984 2.85149 2.70959
# Velocity P-wave (km/s) = 4.22064 4.69423 4.46372
#
# Compressibility (1/GPa) = 0.04573161
#
# Stress axis : x y z
#
# Youngs Moduli (GPa) = 28.13138 28.12895 92.68056
#
# Poissons Ratio (x) = 0.33902 0.27922
# Poissons Ratio (y) = 0.33905 0.27924
# Poissons Ratio (z) = 0.08475 0.08475
#
# Static dielectric constant tensor:
#      x y z
#    x 1.945830 0.000000 0.000000 
#    y 0.000000 1.945830 0.000000 
#    z 0.000000 0.000000 2.067150 
# 
# From -- ./inp_files/779.got.cif
#   From: 2010.05.17/outbox.cif.g08.bks.cpg/sg116_1_cif.got.tgz:779.got - 2010.05.20 11:11:43.
