data_PCOD9557938
_publ_section_title
;
Structure prediction by ZEFSAII (Michael W. Deem and Ramdas Pophale) SiO2 
 PCOD9557938
Probable space group: P -4 C 2
;
_chemical_formula_sum "Si O2"
_cell_formula_units_Z 20
_cell_length_a 7.713316
_cell_length_b 7.713316
_cell_length_c 15.275706
_cell_angle_alpha 90.000000
_cell_angle_beta 90.000000
_cell_angle_gamma 90.000000
_cell_volume 908.831851
_symmetry_space_group_name_H-M "P -4 C 2"
_symmetry_group_IT_number 116
_symmetry_cell_setting 'tetragonal'
loop_
_space_group_symop_operation_xyz
x,y,z
y,-x,-z
-x,-y,z
-y,x,-z
y,x,1/2-z
-y,-x,1/2-z
-x,y,1/2+z
x,-y,1/2+z
loop_
_atom_site_type_symbol
_atom_site_label
_atom_site_fract_x
_atom_site_fract_y
_atom_site_fract_z
Si Si1 0.155986 0.609106 0.565323
Si Si2 0.000000 0.000000 0.750000
Si Si3 0.500000 0.500000 0.500000
Si Si4 0.028079 0.693231 0.880355
O O1 0.317669 0.480469 0.549261
O O2 0.067217 0.681394 0.475153
O O3 0.000000 0.500000 0.608826
O O4 0.248878 0.771866 0.609262
O O5 0.031774 0.159728 0.815492
O O6 0.000000 0.500000 0.844401
#
# Coordination Sequence:
#
# PCOD9557938 Si02
#       4
#     8   2   2   8
#     4  11  22  42  75 103 131 168 232 291 341 396
#     4  12  28  42  60  92 148 182 216 274 338 418
#     4  12  20  40  72 110 132 164 220 306 348 388
#     4  11  24  45  65  99 132 177 226 278 341 403
#
# _framework density 22.006273
#
# number of rings (size 3 to 8) (size 9 to 14) (size 15 to 20)
#    0.000    0.800    8.000    2.400    0.000    1.600 
#    0.000    0.000    0.000    2.400    0.000    0.000 
#    0.000    0.000    0.000    0.000    0.000    0.000 
#
# Total GULP energy -111426.469408 kJ/mol
# GULP energy per Si atom -5571.323470 kJ/mol
# Density = 2.195619 g / cm^3
# Si number density = 22.006273 Si / 1000 Ang^3
#
#
#
# Elastic Constant Matrix: (Units=GPa)
#
#
# Indices 1 2 3 4 5 6 
#
# 1 164.6689 39.0907 8.9994 0.0000 0.0000 0.0000
# 2 39.0907 164.6689 8.9994 0.0000 0.0000 0.0000
# 3 8.9994 8.9994 29.7960 0.0000 0.0000 0.0000
# 4 0.0000 0.0000 0.0000 7.8070 0.0000 0.0000
# 5 0.0000 0.0000 0.0000 0.0000 7.8070 0.0000
# 6 0.0000 0.0000 0.0000 0.0000 0.0000 57.0610
#
#
#
# Elastic Compliance Matrix: (Units=1/GPa)
#
#
# Indices 1 2 3 4 5 6 
#
# 1 0.006503 -0.001460 -0.001523 0.000000 0.000000 0.000000
# 2 -0.001460 0.006503 -0.001523 0.000000 0.000000 0.000000
# 3 -0.001523 -0.001523 0.034482 0.000000 0.000000 0.000000
# 4 0.000000 0.000000 0.000000 0.128091 0.000000 0.000000
# 5 0.000000 0.000000 0.000000 0.000000 0.128091 0.000000
# 6 0.000000 0.000000 0.000000 0.000000 0.000000 0.017525
#
#
# Mechanical properties :
#
#
# Convention : Reuss Voigt Hill
#
# Bulk Modulus (GPa) = 25.99136 52.59030 39.29083
# Shear Modulus (GPa) = 14.57593 34.67127 24.62360
#
# Velocity S-wave (km/s) = 2.57641 3.97359 3.34868
# Velocity P-wave (km/s) = 4.54831 6.70837 5.73103
#
# Compressibility (1/GPa) = 0.03847432
#
# Stress axis : x y z
#
# Youngs Moduli (GPa) = 153.78181 153.78181 29.00102
#
# Poissons Ratio (x) = 0.22459 0.04417
# Poissons Ratio (y) = 0.22459 0.04417
# Poissons Ratio (z) = 0.23420 0.23420
#
# Static dielectric constant tensor:
#      x y z
#    x 1.860020 0.000000 0.000000 
#    y 0.000000 1.860020 0.000000 
#    z 0.000000 0.000000 1.853910 
# 
# From -- ./inp_files/1331.got.cif
#   From: 2010.05.17/outbox.cif.g08.bks.cpg/sg116_1_cif.got.tgz:1331.got - 2010.05.20 11:11:43.
