data_PCOD9557167
_publ_section_title
;
Structure prediction by ZEFSAII (Michael W. Deem and Ramdas Pophale) SiO2 
 PCOD9557167
Probable space group: P -4 M 2
;
_chemical_formula_sum "Si O2"
_cell_formula_units_Z 33
_cell_length_a 8.236602
_cell_length_b 8.236602
_cell_length_c 24.566799
_cell_angle_alpha 90.000000
_cell_angle_beta 90.000000
_cell_angle_gamma 90.000000
_cell_volume 1666.651258
_symmetry_space_group_name_H-M "P -4 M 2"
_symmetry_group_IT_number 115
_symmetry_cell_setting 'tetragonal'
loop_
_space_group_symop_operation_xyz
x,y,z
y,-x,-z
-x,-y,z
-y,x,-z
y,x,-z
-y,-x,-z
-x,y,z
x,-y,z
loop_
_atom_site_type_symbol
_atom_site_label
_atom_site_fract_x
_atom_site_fract_y
_atom_site_fract_z
Si Si1 0.693998 0.183077 0.271314
Si Si2 0.309554 0.684726 0.845455
Si Si3 0.192210 0.316552 0.385607
Si Si4 0.701131 0.000000 0.916865
Si Si5 0.000000 0.000000 0.000000
Si Si6 0.307522 0.307522 0.500000
O O1 0.500000 0.189822 0.277540
O O2 0.732750 0.285883 0.217792
O O3 0.764565 0.233508 0.329111
O O4 0.744283 0.000000 0.258777
O O5 0.500000 0.669104 0.855721
O O6 0.238123 0.500000 0.853143
O O7 0.257593 0.835553 0.882834
O O8 0.262311 0.500000 0.382769
O O9 0.249054 0.237864 0.442342
O O10 0.000000 0.327045 0.389247
O O11 0.829830 0.000000 0.966223
O O12 0.500000 0.000000 0.927203
O O13 0.277086 0.500000 0.497842
#
# Coordination Sequence:
#
# PCOD9557167 Si02
#       6
#     8   8   8   4   1   4
#     4  10  21  35  54  83 114 147 189 240 297 354
#     4   9  19  38  64  91 122 163 206 254 310 362
#     4  10  21  35  52  76 106 143 185 234 293 356
#     4  10  24  44  66  98 134 170 217 261 302 365
#     4  12  28  44  68 104 132 180 216 250 316 356
#     4   9  18  34  54  71  94 138 192 241 288 345
#
# _framework density 19.800184000000002
#
# number of rings (size 3 to 8) (size 9 to 14) (size 15 to 20)
#    0.000    2.303    0.000    1.455    3.394    4.848 
#    0.000    2.424    0.000    0.000    0.000    0.000 
#    0.000    0.000    0.000    0.000    0.000    0.000 
#
# Total GULP energy -183779.652344 kJ/mol
# GULP energy per Si atom -5569.080374 kJ/mol
# Density = 1.975512 g / cm^3
# Si number density = 19.800184 Si / 1000 Ang^3
#
#
#
# Elastic Constant Matrix: (Units=GPa)
#
#
# Indices 1 2 3 4 5 6 
#
# 1 62.1760 14.6662 48.4249 0.0000 0.0000 0.0000
# 2 14.6662 62.1760 48.4249 0.0000 0.0000 0.0000
# 3 48.4249 48.4249 130.5471 0.0000 0.0000 0.0000
# 4 0.0000 0.0000 0.0000 50.9447 0.0000 0.0000
# 5 0.0000 0.0000 0.0000 0.0000 50.9447 0.0000
# 6 0.0000 0.0000 0.0000 0.0000 0.0000 12.3095
#
#
#
# Elastic Compliance Matrix: (Units=1/GPa)
#
#
# Indices 1 2 3 4 5 6 
#
# 1 0.022744 0.001696 -0.009066 0.000000 0.000000 0.000000
# 2 0.001696 0.022744 -0.009066 0.000000 0.000000 0.000000
# 3 -0.009066 -0.009066 0.014386 0.000000 0.000000 0.000000
# 4 0.000000 0.000000 0.000000 0.019629 0.000000 0.000000
# 5 0.000000 0.000000 0.000000 0.000000 0.019629 0.000000
# 6 0.000000 0.000000 0.000000 0.000000 0.000000 0.081238
#
#
# Mechanical properties :
#
#
# Convention : Reuss Voigt Hill
#
# Bulk Modulus (GPa) = 37.03337 53.10345 45.06841
# Shear Modulus (GPa) = 22.49797 32.39863 27.44830
#
# Velocity S-wave (km/s) = 3.37449 4.04948 3.72730
# Velocity P-wave (km/s) = 5.82469 6.98157 6.42921
#
# Compressibility (1/GPa) = 0.02700267
#
# Stress axis : x y z
#
# Youngs Moduli (GPa) = 43.96749 43.96749 69.51352
#
# Poissons Ratio (x) = -0.07456 0.63019
# Poissons Ratio (y) = -0.07456 0.63019
# Poissons Ratio (z) = 0.39860 0.39860
#
# Static dielectric constant tensor:
#      x y z
#    x 1.717770 0.000000 0.000000 
#    y 0.000000 1.717770 0.000000 
#    z 0.000000 0.000000 1.699570 
# 
# From -- ./inp_files/4675.got.cif
#   From: 2010.05.17/outbox.cif.g08.bks.cpg/sg115_3_cif.got.tgz:4675.got - 2010.05.20 11:07:42.
