data_PCOD9557810
_publ_section_title
;
Structure prediction by ZEFSAII (Michael W. Deem and Ramdas Pophale) SiO2 
 PCOD9557810
Probable space group: P -4 C 2
;
_chemical_formula_sum "Si O2"
_cell_formula_units_Z 34
_cell_length_a 10.762512
_cell_length_b 10.762512
_cell_length_c 13.059742
_cell_angle_alpha 90.000000
_cell_angle_beta 90.000000
_cell_angle_gamma 90.000000
_cell_volume 1512.731654
_symmetry_space_group_name_H-M "P -4 C 2"
_symmetry_group_IT_number 116
_symmetry_cell_setting 'tetragonal'
loop_
_space_group_symop_operation_xyz
x,y,z
y,-x,-z
-x,-y,z
-y,x,-z
y,x,1/2-z
-y,-x,1/2-z
-x,y,1/2+z
x,-y,1/2+z
loop_
_atom_site_type_symbol
_atom_site_label
_atom_site_fract_x
_atom_site_fract_y
_atom_site_fract_z
Si Si1 0.725893 0.214027 0.505017
Si Si2 0.677851 0.460192 0.160585
Si Si3 0.849393 0.349166 0.775695
Si Si4 0.974675 0.648389 0.084682
Si Si5 0.500000 0.500000 0.000000
O O1 0.648448 0.277564 0.413822
O O2 0.643055 0.171635 0.603839
O O3 0.843559 0.298329 0.539016
O O4 0.744331 0.077200 0.456911
O O5 0.594458 0.405543 0.250000
O O6 0.779582 0.539784 0.217798
O O7 0.603174 0.545936 0.079550
O O8 0.777792 0.222209 0.750000
O O9 0.974586 0.344039 0.709609
O O10 0.000000 0.500000 0.059426
#
# Coordination Sequence:
#
# PCOD9557810 Si02
#       5
#     8   8   8   8   2
#     4  11  26  44  72 103 147 198 249 312 378 447
#     4  12  23  37  63 102 142 191 246 295 384 456
#     4  10  22  42  65  99 143 188 241 305 371 452
#     4  11  24  47  71 106 145 197 251 310 380 451
#     4  12  22  36  56  94 148 192 226 312 372 454
#
# _framework density 22.475898000000001
#
# number of rings (size 3 to 8) (size 9 to 14) (size 15 to 20)
#    0.000    0.941    2.353    6.000    3.294    3.294 
#    0.000    0.000    0.000    4.235    0.000    0.000 
#    0.000    0.000    0.000    0.000    0.000    0.000 
#
# Total GULP energy -189328.084585 kJ/mol
# GULP energy per Si atom -5568.473076 kJ/mol
# Density = 2.242474 g / cm^3
# Si number density = 22.475898 Si / 1000 Ang^3
#
#
#
# Elastic Constant Matrix: (Units=GPa)
#
#
# Indices 1 2 3 4 5 6 
#
# 1 90.0737 27.2386 49.4989 0.0000 0.0000 0.0000
# 2 27.2386 90.0751 49.4987 0.0000 0.0000 0.0000
# 3 49.4989 49.4987 173.9965 0.0000 0.0000 0.0000
# 4 0.0000 0.0000 0.0000 37.7969 0.0000 0.0000
# 5 0.0000 0.0000 0.0000 0.0000 37.7973 0.0000
# 6 0.0000 0.0000 0.0000 0.0000 0.0000 33.8857
#
#
#
# Elastic Compliance Matrix: (Units=1/GPa)
#
#
# Indices 1 2 3 4 5 6 
#
# 1 0.013566 -0.002349 -0.003191 0.000000 0.000000 0.000000
# 2 -0.002349 0.013566 -0.003191 0.000000 0.000000 0.000000
# 3 -0.003191 -0.003191 0.007563 0.000000 0.000000 0.000000
# 4 0.000000 0.000000 0.000000 0.026457 0.000000 0.000000
# 5 0.000000 0.000000 0.000000 0.000000 0.026457 0.000000
# 6 0.000000 0.000000 0.000000 0.000000 0.000000 0.029511
#
#
# Mechanical properties :
#
#
# Convention : Reuss Voigt Hill
#
# Bulk Modulus (GPa) = 58.02905 67.40198 62.71551
# Shear Modulus (GPa) = 35.63148 37.08992 36.36070
#
# Velocity S-wave (km/s) = 3.98593 4.06668 4.02651
# Velocity P-wave (km/s) = 6.85987 7.21832 7.04138
#
# Compressibility (1/GPa) = 0.01723275
#
# Stress axis : x y z
#
# Youngs Moduli (GPa) = 73.71420 73.71564 132.22565
#
# Poissons Ratio (x) = 0.17314 0.42194
# Poissons Ratio (y) = 0.17313 0.42193
# Poissons Ratio (z) = 0.23523 0.23523
#
# Static dielectric constant tensor:
#      x y z
#    x 1.946440 0.000000 0.000000 
#    y 0.000000 1.946450 0.000000 
#    z 0.000000 0.000000 1.910590 
# 
# From -- ./inp_files/1690.got.cif
#   From: 2010.05.17/outbox.cif.g08.bks.cpg/sg116_1_cif.got.tgz:1690.got - 2010.05.20 11:11:43.
