data_PCOD9558728
_publ_section_title
;
Structure prediction by ZEFSAII (Michael W. Deem and Ramdas Pophale) SiO2 
 PCOD9558728
Probable space group: P -4 N 2
;
_chemical_formula_sum "Si O2"
_cell_formula_units_Z 30
_cell_length_a 10.964484
_cell_length_b 10.964484
_cell_length_c 10.480528
_cell_angle_alpha 90.000000
_cell_angle_beta 90.000000
_cell_angle_gamma 90.000000
_cell_volume 1259.968126
_symmetry_space_group_name_H-M "P -4 N 2"
_symmetry_group_IT_number 118
_symmetry_cell_setting 'tetragonal'
loop_
_space_group_symop_operation_xyz
x,y,z
y,-x,-z
-x,-y,z
-y,x,-z
1/2+y,1/2+x,1/2-z
1/2-y,1/2-x,1/2-z
1/2-x,1/2+y,1/2+z
1/2+x,1/2-y,1/2+z
loop_
_atom_site_type_symbol
_atom_site_label
_atom_site_fract_x
_atom_site_fract_y
_atom_site_fract_z
Si Si1 0.090829 0.232249 0.694858
Si Si2 0.500000 0.500000 0.500000
Si Si3 0.772731 0.941890 0.888985
Si Si4 0.139452 0.360549 0.250000
Si Si5 0.240989 0.167039 0.445675
O O1 0.137811 0.362189 0.750000
O O2 0.137876 0.148777 0.811470
O O3 0.164829 0.170021 0.577410
O O4 0.953982 0.237855 0.641285
O O5 0.538764 0.376012 0.570045
O O6 0.674450 0.006564 0.799567
O O7 0.702504 0.875672 0.004127
O O8 0.175351 0.271103 0.364461
#
# Coordination Sequence:
#
# PCOD9558728 Si02
#       5
#     8   2   8   4   8
#     4  10  24  46  70 102 144 189 245 300 366 448
#     4  12  20  44  76  98 148 188 244 308 366 460
#     4  11  24  43  73 108 144 197 245 305 376 443
#     4  12  24  42  72 108 144 186 246 306 371 448
#     4  11  24  45  71 103 143 191 244 302 374 445
#
# _framework density 23.810124999999999
#
# number of rings (size 3 to 8) (size 9 to 14) (size 15 to 20)
#    0.000    1.067    2.667    3.200    0.000    2.667 
#    0.000   22.667    0.000    0.000    0.000    0.000 
#    0.000    0.000    0.000    0.000    0.000    0.000 
#
# Total GULP energy -167389.053944 kJ/mol
# GULP energy per Si atom -5579.635131 kJ/mol
# Density = 2.375593 g / cm^3
# Si number density = 23.810125 Si / 1000 Ang^3
#
#
#
# Elastic Constant Matrix: (Units=GPa)
#
#
# Indices 1 2 3 4 5 6 
#
# 1 88.0483 86.8289 26.0840 0.0000 0.0000 0.0000
# 2 86.8289 88.0478 26.0836 0.0000 0.0000 0.0000
# 3 26.0840 26.0836 93.7148 0.0000 0.0000 0.0000
# 4 0.0000 0.0000 0.0000 47.4008 0.0000 0.0000
# 5 0.0000 0.0000 0.0000 0.0000 47.4016 0.0000
# 6 0.0000 0.0000 0.0000 0.0000 0.0000 26.5614
#
#
#
# Elastic Compliance Matrix: (Units=1/GPa)
#
#
# Indices 1 2 3 4 5 6 
#
# 1 0.413241 -0.407006 -0.001737 0.000000 0.000000 0.000000
# 2 -0.407006 0.413243 -0.001734 0.000000 0.000000 0.000000
# 3 -0.001737 -0.001734 0.011637 0.000000 0.000000 0.000000
# 4 0.000000 0.000000 0.000000 0.021097 0.000000 0.000000
# 5 0.000000 0.000000 0.000000 0.000000 0.021096 0.000000
# 6 0.000000 0.000000 0.000000 0.000000 0.000000 0.037649
#
#
# Mechanical properties :
#
#
# Convention : Reuss Voigt Hill
#
# Bulk Modulus (GPa) = 58.25388 60.86710 59.56049
# Shear Modulus (GPa) = 2.86592 32.99370 17.92981
#
# Velocity S-wave (km/s) = 1.09830 3.72654 2.74712
# Velocity P-wave (km/s) = 5.11151 6.64343 5.92717
#
# Compressibility (1/GPa) = 0.01716624
#
# Stress axis : x y z
#
# Youngs Moduli (GPa) = 2.41989 2.41989 85.93374
#
# Poissons Ratio (x) = 0.98491 0.14930
# Poissons Ratio (y) = 0.98491 0.14901
# Poissons Ratio (z) = 0.00420 0.00420
#
# Static dielectric constant tensor:
#      x y z
#    x 2.031670 0.000000 0.000000 
#    y 0.000000 2.031660 0.000000 
#    z 0.000000 0.000000 2.159690 
# 
# From -- ./inp_files/2792.got.cif
#   From: 2010.05.17/outbox.cif.g08.bks.cpg/sg118_2_cif.got.tgz:2792.got - 2010.05.20 11:17:24.
