data_PCOD9558475
_publ_section_title
;
Structure prediction by ZEFSAII (Michael W. Deem and Ramdas Pophale) SiO2 
 PCOD9558475
Probable space group: P -4 N 2
;
_chemical_formula_sum "Si O2"
_cell_formula_units_Z 48
_cell_length_a 9.220809
_cell_length_b 9.220809
_cell_length_c 32.271397
_cell_angle_alpha 90.000000
_cell_angle_beta 90.000000
_cell_angle_gamma 90.000000
_cell_volume 2743.821269
_symmetry_space_group_name_H-M "P -4 N 2"
_symmetry_group_IT_number 118
_symmetry_cell_setting 'tetragonal'
loop_
_space_group_symop_operation_xyz
x,y,z
y,-x,-z
-x,-y,z
-y,x,-z
1/2+y,1/2+x,1/2-z
1/2-y,1/2-x,1/2-z
1/2-x,1/2+y,1/2+z
1/2+x,1/2-y,1/2+z
loop_
_atom_site_type_symbol
_atom_site_label
_atom_site_fract_x
_atom_site_fract_y
_atom_site_fract_z
Si Si1 0.323067 0.332099 0.454263
Si Si2 0.326361 0.671546 0.288177
Si Si3 0.323267 0.166299 0.372169
Si Si4 0.328454 0.673639 0.711823
Si Si5 0.167901 0.823067 0.045737
Si Si6 0.676733 0.166299 0.372169
O O1 0.274582 0.238667 0.415149
O O2 0.279254 0.500000 0.448958
O O3 0.500000 0.331087 0.454967
O O4 0.278654 0.278654 0.500000
O O5 0.245831 0.745831 0.250000
O O6 0.500000 0.694304 0.283697
O O7 0.299785 0.500000 0.289143
O O8 0.280343 0.743453 0.331663
O O9 0.280343 0.256547 0.331663
O O10 0.500000 0.167926 0.373032
O O11 0.276419 0.000000 0.368836
O O12 0.254169 0.754169 0.750000
O O13 0.261333 0.774582 0.084851
#
# Coordination Sequence:
#
# PCOD9558475 Si02
#       6
#     8   8   8   8   8   8
#     4   8  13  22  38  61  89 121 157 195 233 275
#     4  10  20  33  50  72  98 128 162 201 245 292
#     4   9  16  26  43  68  96 124 156 196 239 283
#     4  10  20  33  50  72  98 128 162 201 245 292
#     4   8  13  22  38  61  89 121 157 195 233 275
#     4   9  16  26  43  68  96 124 156 196 239 283
#
# _framework density 17.493853000000001
#
# number of rings (size 3 to 8) (size 9 to 14) (size 15 to 20)
#    0.000    3.000    0.000    3.000    0.000    6.000 
#    0.000    0.000    0.000    2.000    0.000    4.667 
#    0.000    0.000    0.000    0.000    0.000    0.000 
#
# Total GULP energy -267473.578866 kJ/mol
# GULP energy per Si atom -5572.366226 kJ/mol
# Density = 1.745404 g / cm^3
# Si number density = 17.493853 Si / 1000 Ang^3
#
#
#
# Elastic Constant Matrix: (Units=GPa)
#
#
# Indices 1 2 3 4 5 6 
#
# 1 54.4819 42.8993 75.4119 0.0000 0.0000 0.0000
# 2 42.8993 54.4819 75.4119 0.0000 0.0000 0.0000
# 3 75.4119 75.4119 220.7844 0.0000 0.0000 0.0000
# 4 0.0000 0.0000 0.0000 24.8029 0.0000 0.0000
# 5 0.0000 0.0000 0.0000 0.0000 24.8029 0.0000
# 6 0.0000 0.0000 0.0000 0.0000 0.0000 12.1573
#
#
#
# Elastic Compliance Matrix: (Units=1/GPa)
#
#
# Indices 1 2 3 4 5 6 
#
# 1 0.054070 -0.032267 -0.007447 0.000000 0.000000 0.000000
# 2 -0.032267 0.054070 -0.007447 0.000000 0.000000 0.000000
# 3 -0.007447 -0.007447 0.009617 0.000000 0.000000 0.000000
# 4 0.000000 0.000000 0.000000 0.040318 0.000000 0.000000
# 5 0.000000 0.000000 0.000000 0.000000 0.040318 0.000000
# 6 0.000000 0.000000 0.000000 0.000000 0.000000 0.082255
#
#
# Mechanical properties :
#
#
# Convention : Reuss Voigt Hill
#
# Bulk Modulus (GPa) = 42.67276 79.68830 61.18053
# Shear Modulus (GPa) = 13.06235 21.42096 17.24166
#
# Velocity S-wave (km/s) = 2.73551 3.50306 3.14281
# Velocity P-wave (km/s) = 5.86714 7.87483 6.94393
#
# Compressibility (1/GPa) = 0.02343415
#
# Stress axis : x y z
#
# Youngs Moduli (GPa) = 18.49468 18.49468 103.98663
#
# Poissons Ratio (x) = 0.59676 0.77440
# Poissons Ratio (y) = 0.59676 0.77440
# Poissons Ratio (z) = 0.13773 0.13773
#
# Static dielectric constant tensor:
#      x y z
#    x 1.586550 0.000000 0.000000 
#    y 0.000000 1.586550 0.000000 
#    z 0.000000 0.000000 1.594000 
# 
# From -- ./inp_files/6865.got.cif
#   From: 2010.05.17/outbox.cif.g08.bks.cpg/sg118_4_cif.got.tgz:6865.got - 2010.05.20 11:17:24.
