data_PCOD9558517
_publ_section_title
;
Structure prediction by ZEFSAII (Michael W. Deem and Ramdas Pophale) SiO2 
 PCOD9558517
Probable space group: P -4 N 2
;
_chemical_formula_sum "Si O2"
_cell_formula_units_Z 40
_cell_length_a 15.207088
_cell_length_b 15.207088
_cell_length_c 8.326137
_cell_angle_alpha 90.000000
_cell_angle_beta 90.000000
_cell_angle_gamma 90.000000
_cell_volume 1925.465187
_symmetry_space_group_name_H-M "P -4 N 2"
_symmetry_group_IT_number 118
_symmetry_cell_setting 'tetragonal'
loop_
_space_group_symop_operation_xyz
x,y,z
y,-x,-z
-x,-y,z
-y,x,-z
1/2+y,1/2+x,1/2-z
1/2-y,1/2-x,1/2-z
1/2-x,1/2+y,1/2+z
1/2+x,1/2-y,1/2+z
loop_
_atom_site_type_symbol
_atom_site_label
_atom_site_fract_x
_atom_site_fract_y
_atom_site_fract_z
Si Si1 0.429988 0.291029 0.066806
Si Si2 0.210449 0.918351 0.670478
Si Si3 0.831809 0.287347 0.077368
Si Si4 0.023755 0.660895 0.828860
Si Si5 0.203582 0.356943 0.497788
O O1 0.386157 0.377229 0.141205
O O2 0.485197 0.236592 0.195601
O O3 0.484646 0.296855 0.903279
O O4 0.345279 0.231949 0.033001
O O5 0.284094 0.863879 0.569929
O O6 0.245521 0.904337 0.850157
O O7 0.833505 0.333505 0.250000
O O8 0.919987 0.295416 0.974711
O O9 0.782118 0.193942 0.091836
O O10 0.079023 0.579023 0.750000
O O11 0.928102 0.647265 0.904218
#
# Coordination Sequence:
#
# PCOD9558517 Si02
#       5
#     8   8   8   8   8
#     4  10  21  37  61  89 123 160 209 258 312 376
#     4  10  21  40  62  89 124 168 210 259 320 386
#     4  10  20  37  62  88 119 164 206 250 313 375
#     4  10  21  39  61  93 127 154 209 265 308 377
#     4  10  21  38  64  90 122 164 210 255 317 391
#
# _framework density 20.7742
#
# number of rings (size 3 to 8) (size 9 to 14) (size 15 to 20)
#    0.000    2.000    2.000    1.200    5.600    0.400 
#    0.000    7.000    0.000   11.400    0.000    0.000 
#    0.000    0.000    0.000    0.000    0.000    0.000 
#
# Total GULP energy -222911.971474 kJ/mol
# GULP energy per Si atom -5572.799287 kJ/mol
# Density = 2.072692 g / cm^3
# Si number density = 20.774200 Si / 1000 Ang^3
#
#
#
# Elastic Constant Matrix: (Units=GPa)
#
#
# Indices 1 2 3 4 5 6 
#
# 1 43.6035 44.8003 21.0459 0.0000 0.0000 0.0000
# 2 44.8003 43.6035 21.0459 0.0000 0.0000 0.0000
# 3 21.0459 21.0459 84.0416 0.0000 0.0000 0.0000
# 4 0.0000 0.0000 0.0000 32.3949 0.0000 0.0000
# 5 0.0000 0.0000 0.0000 0.0000 32.3949 0.0000
# 6 0.0000 0.0000 0.0000 0.0000 0.0000 17.6570
#
#
#
# Elastic Compliance Matrix: (Units=1/GPa)
#
#
# Indices 1 2 3 4 5 6 
#
# 1 -0.411337 0.424180 -0.003216 0.000000 0.000000 0.000000
# 2 0.424180 -0.411337 -0.003216 0.000000 0.000000 0.000000
# 3 -0.003216 -0.003216 0.013510 0.000000 0.000000 0.000000
# 4 0.000000 0.000000 0.000000 0.030869 0.000000 0.000000
# 5 0.000000 0.000000 0.000000 0.000000 0.030869 0.000000
# 6 0.000000 0.000000 0.000000 0.000000 0.000000 0.056635
#
#
# Mechanical properties :
#
#
# Convention : Reuss Voigt Hill
#
# Bulk Modulus (GPa) = 37.97798 38.33696 38.15747
# Shear Modulus (GPa) = -3.29487 22.11312 9.40913
#
# Velocity S-wave (km/s) = -1.26075 3.26613 2.13051
# Velocity P-wave (km/s) = 4.02513 5.71994 4.94567
#
# Compressibility (1/GPa) = 0.02633105
#
# Stress axis : x y z
#
# Youngs Moduli (GPa) = -2.43109 -2.43109 74.02104
#
# Poissons Ratio (x) = 1.03122 0.23807
# Poissons Ratio (y) = 1.03122 0.23807
# Poissons Ratio (z) = -0.00782 -0.00782
#
# Static dielectric constant tensor:
#      x y z
#    x 1.776900 0.000000 0.000000 
#    y 0.000000 1.776900 0.000000 
#    z 0.000000 0.000000 1.749080 
# 
# From -- ./inp_files/1858.got.cif
#   From: 2010.05.17/outbox.cif.g08.bks.cpg/sg118_1_cif.got.tgz:1858.got - 2010.05.20 11:17:24.
