data_PCOD9558865
_publ_section_title
;
Structure prediction by ZEFSAII (Michael W. Deem and Ramdas Pophale) SiO2 
 PCOD9558865
Probable space group: P -4 N 2
;
_chemical_formula_sum "Si O2"
_cell_formula_units_Z 34
_cell_length_a 9.050934
_cell_length_b 9.050934
_cell_length_c 17.540071
_cell_angle_alpha 90.000000
_cell_angle_beta 90.000000
_cell_angle_gamma 90.000000
_cell_volume 1436.872202
_symmetry_space_group_name_H-M "P -4 N 2"
_symmetry_group_IT_number 118
_symmetry_cell_setting 'tetragonal'
loop_
_space_group_symop_operation_xyz
x,y,z
y,-x,-z
-x,-y,z
-y,x,-z
1/2+y,1/2+x,1/2-z
1/2-y,1/2-x,1/2-z
1/2-x,1/2+y,1/2+z
1/2+x,1/2-y,1/2+z
loop_
_atom_site_type_symbol
_atom_site_label
_atom_site_fract_x
_atom_site_fract_y
_atom_site_fract_z
Si Si1 0.230047 0.229247 0.477335
Si Si2 0.842172 0.420410 0.668210
Si Si3 0.168966 0.525470 0.405603
Si Si4 0.606364 0.637128 0.723034
Si Si5 0.500000 0.500000 0.000000
O O1 0.322738 0.173434 0.405673
O O2 0.208195 0.403381 0.468668
O O3 0.316600 0.195821 0.555152
O O4 0.075359 0.145612 0.466022
O O5 0.838607 0.338607 0.750000
O O6 0.714912 0.540132 0.672260
O O7 0.000000 0.500000 0.664900
O O8 0.269677 0.501288 0.331840
O O9 0.000000 0.500000 0.384172
O O10 0.500000 0.500000 0.761469
O O11 0.728645 0.771356 0.750000
#
# Coordination Sequence:
#
# PCOD9558865 Si02
#       5
#     8   8   8   8   2
#     4  12  26  48  73 110 151 197 260 316 391 463
#     4  11  24  46  77 106 143 202 252 308 380 470
#     4  12  27  47  75 112 154 201 254 326 394 461
#     4  12  27  52  78 117 151 207 261 317 396 476
#     4  12  28  44  76 112 144 200 248 330 376 448
#
# _framework density 23.662507999999999
#
# number of rings (size 3 to 8) (size 9 to 14) (size 15 to 20)
#    0.000    0.235    7.059    2.118    3.294    2.353 
#    4.235    0.000    0.000    0.000    0.000    0.000 
#    0.000    0.000    0.000    0.000    0.000    0.000 
#
# Total GULP energy -189288.247017 kJ/mol
# GULP energy per Si atom -5567.301383 kJ/mol
# Density = 2.360865 g / cm^3
# Si number density = 23.662508 Si / 1000 Ang^3
#
#
#
# Elastic Constant Matrix: (Units=GPa)
#
#
# Indices 1 2 3 4 5 6 
#
# 1 103.0592 29.3338 2.7774 0.0000 0.0000 0.0000
# 2 29.3338 103.0592 2.7773 0.0000 0.0000 0.0000
# 3 2.7774 2.7773 43.1463 0.0000 0.0000 0.0000
# 4 0.0000 0.0000 0.0000 34.2144 0.0000 0.0000
# 5 0.0000 0.0000 0.0000 0.0000 34.2139 0.0000
# 6 0.0000 0.0000 0.0000 0.0000 0.0000 45.0580
#
#
#
# Elastic Compliance Matrix: (Units=1/GPa)
#
#
# Indices 1 2 3 4 5 6 
#
# 1 0.010569 -0.002995 -0.000488 0.000000 0.000000 0.000000
# 2 -0.002995 0.010569 -0.000488 0.000000 0.000000 0.000000
# 3 -0.000488 -0.000488 0.023240 0.000000 0.000000 0.000000
# 4 0.000000 0.000000 0.000000 0.029227 0.000000 0.000000
# 5 0.000000 0.000000 0.000000 0.000000 0.029228 0.000000
# 6 0.000000 0.000000 0.000000 0.000000 0.000000 0.022194
#
#
# Mechanical properties :
#
#
# Convention : Reuss Voigt Hill
#
# Bulk Modulus (GPa) = 27.44456 35.44907 31.44681
# Shear Modulus (GPa) = 34.45609 36.98900 35.72254
#
# Velocity S-wave (km/s) = 3.82009 3.95801 3.88966
# Velocity P-wave (km/s) = 5.57503 5.99178 5.78716
#
# Compressibility (1/GPa) = 0.03643709
#
# Stress axis : x y z
#
# Youngs Moduli (GPa) = 94.61822 94.61821 43.02975
#
# Poissons Ratio (x) = 0.28339 0.02098
# Poissons Ratio (y) = 0.28339 0.02098
# Poissons Ratio (z) = 0.04613 0.04613
#
# Static dielectric constant tensor:
#      x y z
#    x 2.017300 0.000000 0.000000 
#    y 0.000000 2.017300 0.000000 
#    z 0.000000 0.000000 1.863750 
# 
# From -- ./inp_files/5460.got.cif
#   From: 2010.05.17/outbox.cif.g08.bks.cpg/sg118_3_cif.got.tgz:5460.got - 2010.05.20 11:17:24.
