data_PCOD9558408
_publ_section_title
;
Structure prediction by ZEFSAII (Michael W. Deem and Ramdas Pophale) SiO2 
 PCOD9558408
Probable space group: P -4 N 2
;
_chemical_formula_sum "Si O2"
_cell_formula_units_Z 40
_cell_length_a 14.710856
_cell_length_b 14.710856
_cell_length_c 8.850813
_cell_angle_alpha 90.000000
_cell_angle_beta 90.000000
_cell_angle_gamma 90.000000
_cell_volume 1915.398106
_symmetry_space_group_name_H-M "P -4 N 2"
_symmetry_group_IT_number 118
_symmetry_cell_setting 'tetragonal'
loop_
_space_group_symop_operation_xyz
x,y,z
y,-x,-z
-x,-y,z
-y,x,-z
1/2+y,1/2+x,1/2-z
1/2-y,1/2-x,1/2-z
1/2-x,1/2+y,1/2+z
1/2+x,1/2-y,1/2+z
loop_
_atom_site_type_symbol
_atom_site_label
_atom_site_fract_x
_atom_site_fract_y
_atom_site_fract_z
Si Si1 0.364909 0.560709 0.956137
Si Si2 0.941982 0.390804 0.909016
Si Si3 0.692189 0.389208 0.615520
Si Si4 0.745382 0.047250 0.930883
Si Si5 0.067831 0.688638 0.348189
O O1 0.342806 0.579436 0.780204
O O2 0.454530 0.613980 0.011245
O O3 0.277714 0.586601 0.054859
O O4 0.937705 0.437705 0.750000
O O5 0.878705 0.300653 0.891285
O O6 0.034945 0.342033 0.960422
O O7 0.895576 0.450150 0.039033
O O8 0.640999 0.297530 0.572794
O O9 0.682489 0.472000 0.495250
O O10 0.711754 0.012575 0.768186
O O11 0.153272 0.653272 0.250000
#
# Coordination Sequence:
#
# PCOD9558408 Si02
#       5
#     8   8   8   8   8
#     4  11  22  31  47  73 108 141 168 202 252 311
#     4   9  18  32  48  65  95 135 165 211 242 291
#     4  10  20  31  46  69  99 133 169 197 242 299
#     4   9  20  30  48  68  98 132 164 201 240 299
#     4  10  18  33  47  67  97 140 170 208 249 290
#
# _framework density 20.883388
#
# number of rings (size 3 to 8) (size 9 to 14) (size 15 to 20)
#    1.200    1.000    4.000    0.000    2.800    0.400 
#    0.000    0.000    0.000    0.000    0.000    0.000 
#    0.000   37.600   43.600    0.000    0.000    0.000 
#
# Total GULP energy -222856.821288 kJ/mol
# GULP energy per Si atom -5571.420532 kJ/mol
# Density = 2.083586 g / cm^3
# Si number density = 20.883388 Si / 1000 Ang^3
#
#
#
# Elastic Constant Matrix: (Units=GPa)
#
#
# Indices 1 2 3 4 5 6 
#
# 1 65.0631 49.0730 15.1174 0.0000 0.0000 0.0000
# 2 49.0730 65.0631 15.1174 0.0000 0.0000 0.0000
# 3 15.1174 15.1174 106.7297 0.0000 0.0000 0.0000
# 4 0.0000 0.0000 0.0000 -11.9227 0.0000 0.0000
# 5 0.0000 0.0000 0.0000 0.0000 -11.9227 0.0000
# 6 0.0000 0.0000 0.0000 0.0000 0.0000 25.6573
#
#
#
# Elastic Compliance Matrix: (Units=1/GPa)
#
#
# Indices 1 2 3 4 5 6 
#
# 1 0.035821 -0.026718 -0.001289 0.000000 0.000000 0.000000
# 2 -0.026718 0.035821 -0.001289 0.000000 0.000000 0.000000
# 3 -0.001289 -0.001289 0.009735 0.000000 0.000000 0.000000
# 4 0.000000 0.000000 0.000000 -0.083873 0.000000 0.000000
# 5 0.000000 0.000000 0.000000 0.000000 -0.083873 0.000000
# 6 0.000000 0.000000 0.000000 0.000000 0.000000 0.038975
#
#
# Mechanical properties :
#
#
# Convention : Reuss Voigt Hill
#
# Bulk Modulus (GPa) = 43.89181 43.94128 43.91654
# Shear Modulus (GPa) = 266.06083 10.86557 138.46320
#
# Velocity S-wave (km/s) = 11.29954 2.28348 8.15150
# Velocity P-wave (km/s) = 13.83122 5.29521 10.47239
#
# Compressibility (1/GPa) = 0.02278329
#
# Stress axis : x y z
#
# Youngs Moduli (GPa) = 27.91670 27.91670 102.72507
#
# Poissons Ratio (x) = 0.74587 0.13245
# Poissons Ratio (y) = 0.74587 0.13245
# Poissons Ratio (z) = 0.03599 0.03599
#
# Static dielectric constant tensor:
#      x y z
#    x 1.763580 0.000000 0.000000 
#    y 0.000000 1.763580 0.000000 
#    z 0.000000 0.000000 1.792270 
# 
# From -- ./inp_files/2009.got.cif
#   From: 2010.05.17/outbox.cif.g08.bks.cpg/sg118_2_cif.got.tgz:2009.got - 2010.05.20 11:17:24.
