data_PCOD9558497
_publ_section_title
;
Structure prediction by ZEFSAII (Michael W. Deem and Ramdas Pophale) SiO2 
 PCOD9558497
Probable space group: P -4 N 2
;
_chemical_formula_sum "Si O2"
_cell_formula_units_Z 40
_cell_length_a 12.443666
_cell_length_b 12.443666
_cell_length_c 13.779614
_cell_angle_alpha 90.000000
_cell_angle_beta 90.000000
_cell_angle_gamma 90.000000
_cell_volume 2133.701898
_symmetry_space_group_name_H-M "P -4 N 2"
_symmetry_group_IT_number 118
_symmetry_cell_setting 'tetragonal'
loop_
_space_group_symop_operation_xyz
x,y,z
y,-x,-z
-x,-y,z
-y,x,-z
1/2+y,1/2+x,1/2-z
1/2-y,1/2-x,1/2-z
1/2-x,1/2+y,1/2+z
1/2+x,1/2-y,1/2+z
loop_
_atom_site_type_symbol
_atom_site_label
_atom_site_fract_x
_atom_site_fract_y
_atom_site_fract_z
Si Si1 0.889944 0.207879 0.636661
Si Si2 0.443832 0.762741 0.515069
Si Si3 0.907547 0.407547 0.360735
Si Si4 0.443833 0.762741 0.984931
Si Si5 0.292121 0.610056 0.636660
O O1 0.829009 0.116855 0.574941
O O2 0.814915 0.314914 0.630064
O O3 0.897257 0.179788 0.750000
O O4 0.003502 0.227619 0.585567
O O5 0.540364 0.809660 0.581011
O O6 0.358310 0.858311 0.500212
O O7 0.383144 0.670990 0.574940
O O8 0.496498 0.727620 0.414433
O O9 0.880449 0.380449 0.250000
O O10 0.000000 0.500000 0.357632
O O11 0.959635 0.309661 0.418990
#
# Coordination Sequence:
#
# PCOD9558497 Si02
#       5
#     8   8   8   8   8
#     4  10  21  38  60  85 117 154 190 239 294 339
#     4  10  20  36  58  85 115 150 194 238 281 346
#     4   9  16  30  55  83 107 140 186 233 282 336
#     4  10  20  36  58  85 115 150 194 238 281 346
#     4  10  21  38  60  85 117 154 190 239 294 339
#
# _framework density 18.746763000000001
#
# number of rings (size 3 to 8) (size 9 to 14) (size 15 to 20)
#    0.000    2.200    2.000    1.200    0.000    6.400 
#    0.000    8.000    0.000    0.000    0.000    0.000 
#    0.000    0.000    0.000    0.000    0.000    0.000 
#
# Total GULP energy -223278.192147 kJ/mol
# GULP energy per Si atom -5581.954804 kJ/mol
# Density = 1.870409 g / cm^3
# Si number density = 18.746763 Si / 1000 Ang^3
#
#
#
# Elastic Constant Matrix: (Units=GPa)
#
#
# Indices 1 2 3 4 5 6 
#
# 1 62.6487 35.4482 52.8706 0.0000 0.0000 0.0000
# 2 35.4482 62.6487 52.8706 0.0000 0.0000 0.0000
# 3 52.8706 52.8706 126.3820 0.0000 0.0000 0.0000
# 4 0.0000 0.0000 0.0000 30.9615 0.0000 0.0000
# 5 0.0000 0.0000 0.0000 0.0000 30.9615 0.0000
# 6 0.0000 0.0000 0.0000 0.0000 0.0000 9.7840
#
#
#
# Elastic Compliance Matrix: (Units=1/GPa)
#
#
# Indices 1 2 3 4 5 6 
#
# 1 0.027665 -0.009099 -0.007767 0.000000 0.000000 0.000000
# 2 -0.009099 0.027665 -0.007767 0.000000 0.000000 0.000000
# 3 -0.007767 -0.007767 0.014411 0.000000 0.000000 0.000000
# 4 0.000000 0.000000 0.000000 0.032298 0.000000 0.000000
# 5 0.000000 0.000000 0.000000 0.000000 0.032298 0.000000
# 6 0.000000 0.000000 0.000000 0.000000 0.000000 0.102208
#
#
# Mechanical properties :
#
#
# Convention : Reuss Voigt Hill
#
# Bulk Modulus (GPa) = 48.83881 59.33977 54.08929
# Shear Modulus (GPa) = 17.08606 21.70740 19.39673
#
# Velocity S-wave (km/s) = 3.02224 3.40653 3.22012
# Velocity P-wave (km/s) = 6.18765 6.86983 6.53764
#
# Compressibility (1/GPa) = 0.02047552
#
# Stress axis : x y z
#
# Youngs Moduli (GPa) = 36.14654 36.14654 69.39143
#
# Poissons Ratio (x) = 0.32889 0.53896
# Poissons Ratio (y) = 0.32889 0.53896
# Poissons Ratio (z) = 0.28075 0.28075
#
# Static dielectric constant tensor:
#      x y z
#    x 1.644090 0.000000 0.000000 
#    y 0.000000 1.644090 0.000000 
#    z 0.000000 0.000000 1.630510 
# 
# From -- ./inp_files/3162.got.cif
#   From: 2010.05.17/outbox.cif.g08.bks.cpg/sg118_2_cif.got.tgz:3162.got - 2010.05.20 11:17:24.
