data_PCOD9558070
_publ_section_title
;
Structure prediction by ZEFSAII (Michael W. Deem and Ramdas Pophale) SiO2 
 PCOD9558070
Probable space group: P -4 B 2
;
_chemical_formula_sum "Si O2"
_cell_formula_units_Z 48
_cell_length_a 19.347845
_cell_length_b 19.347845
_cell_length_c 7.017343
_cell_angle_alpha 90.000000
_cell_angle_beta 90.000000
_cell_angle_gamma 90.000000
_cell_volume 2626.865906
_symmetry_space_group_name_H-M "P -4 B 2"
_symmetry_group_IT_number 117
_symmetry_cell_setting 'tetragonal'
loop_
_space_group_symop_operation_xyz
x,y,z
y,-x,-z
-x,-y,z
-y,x,-z
1/2+y,1/2+x,-z
1/2-y,1/2-x,-z
1/2-x,1/2+y,z
1/2+x,1/2-y,z
loop_
_atom_site_type_symbol
_atom_site_label
_atom_site_fract_x
_atom_site_fract_y
_atom_site_fract_z
Si Si1 0.890102 0.982657 0.041061
Si Si2 0.128826 0.445853 0.859545
Si Si3 0.067223 0.162533 0.603811
Si Si4 0.051924 0.664420 0.456778
Si Si5 0.690412 0.069307 0.243007
Si Si6 0.947698 0.183302 0.322913
O O1 0.862004 0.011062 0.238956
O O2 0.832080 0.952605 0.901560
O O3 0.951188 0.926793 0.059125
O O4 0.131181 0.507286 0.714124
O O5 0.123805 0.373023 0.746342
O O6 0.062389 0.437612 0.000000
O O7 0.190344 0.446798 0.015285
O O8 0.094397 0.236470 0.678377
O O9 0.126461 0.105386 0.596067
O O10 0.023728 0.172599 0.412641
O O11 0.116035 0.616035 0.500000
O O12 0.073277 0.740287 0.385522
O O13 0.999329 0.672157 0.635701
#
# Coordination Sequence:
#
# PCOD9558070 Si02
#       6
#     8   8   8   8   8   8
#     4   9  17  29  50  77 104 138 182 225 262 309
#     4   8  19  36  56  82 100 136 183 223 267 317
#     4  10  18  34  53  79 112 141 182 220 268 322
#     4  11  21  36  53  77 113 138 177 226 281 329
#     4   8  19  34  55  78 104 135 177 225 265 319
#     4  10  21  33  54  79 107 150 175 224 271 321
#
# _framework density 18.272725000000001
#
# number of rings (size 3 to 8) (size 9 to 14) (size 15 to 20)
#    1.000    1.500    0.000    2.500    0.000    3.667 
#    3.000    3.333    0.000   12.000    0.000    0.000 
#    0.000    0.000    0.000    0.000    0.000    0.000 
#
# Total GULP energy -267208.862323 kJ/mol
# GULP energy per Si atom -5566.851298 kJ/mol
# Density = 1.823114 g / cm^3
# Si number density = 18.272725 Si / 1000 Ang^3
#
#
#
# Elastic Constant Matrix: (Units=GPa)
#
#
# Indices 1 2 3 4 5 6 
#
# 1 66.7292 42.9390 25.1195 0.0000 0.0000 0.0000
# 2 42.9390 66.7289 25.1192 0.0000 0.0000 0.0000
# 3 25.1195 25.1192 49.3334 0.0000 0.0000 0.0000
# 4 0.0000 0.0000 0.0000 18.4993 0.0000 0.0000
# 5 0.0000 0.0000 0.0000 0.0000 18.4996 0.0000
# 6 0.0000 0.0000 0.0000 0.0000 0.0000 8.0103
#
#
#
# Elastic Compliance Matrix: (Units=1/GPa)
#
#
# Indices 1 2 3 4 5 6 
#
# 1 0.026963 -0.015071 -0.006055 0.000000 0.000000 0.000000
# 2 -0.015071 0.026963 -0.006055 0.000000 0.000000 0.000000
# 3 -0.006055 -0.006055 0.026437 0.000000 0.000000 0.000000
# 4 0.000000 0.000000 0.000000 0.054056 0.000000 0.000000
# 5 0.000000 0.000000 0.000000 0.000000 0.054055 0.000000
# 6 0.000000 0.000000 0.000000 0.000000 0.000000 0.124839
#
#
# Mechanical properties :
#
#
# Convention : Reuss Voigt Hill
#
# Bulk Modulus (GPa) = 38.46126 41.01631 39.73878
# Shear Modulus (GPa) = 13.28573 14.97610 14.13092
#
# Velocity S-wave (km/s) = 2.69937 2.86595 2.78390
# Velocity P-wave (km/s) = 5.55064 5.78334 5.66818
#
# Compressibility (1/GPa) = 0.02600019
#
# Stress axis : x y z
#
# Youngs Moduli (GPa) = 37.08740 37.08738 37.82627
#
# Poissons Ratio (x) = 0.55894 0.22905
# Poissons Ratio (y) = 0.55894 0.22904
# Poissons Ratio (z) = 0.22458 0.22457
#
# Static dielectric constant tensor:
#      x y z
#    x 1.621600 0.000000 0.000000 
#    y 0.000000 1.621600 0.000000 
#    z 0.000000 0.000000 1.656960 
# 
# From -- ./inp_files/1949.got.cif
#   From: 2010.05.17/outbox.cif.g08.bks.cpg/sg117_1_cif.got.tgz:1949.got - 2010.05.20 11:15:09.
