data_PCOD9558739
_publ_section_title
;
Structure prediction by ZEFSAII (Michael W. Deem and Ramdas Pophale) SiO2 
 PCOD9558739
Probable space group: P -4 N 2
;
_chemical_formula_sum "Si O2"
_cell_formula_units_Z 56
_cell_length_a 14.105220
_cell_length_b 14.105220
_cell_length_c 12.552665
_cell_angle_alpha 90.000000
_cell_angle_beta 90.000000
_cell_angle_gamma 90.000000
_cell_volume 2497.443473
_symmetry_space_group_name_H-M "P -4 N 2"
_symmetry_group_IT_number 118
_symmetry_cell_setting 'tetragonal'
loop_
_space_group_symop_operation_xyz
x,y,z
y,-x,-z
-x,-y,z
-y,x,-z
1/2+y,1/2+x,1/2-z
1/2-y,1/2-x,1/2-z
1/2-x,1/2+y,1/2+z
1/2+x,1/2-y,1/2+z
loop_
_atom_site_type_symbol
_atom_site_label
_atom_site_fract_x
_atom_site_fract_y
_atom_site_fract_z
Si Si1 0.835644 0.600952 0.643050
Si Si2 0.114230 0.507091 0.992003
Si Si3 0.686866 0.960742 0.722598
Si Si4 0.703486 0.638897 0.270188
Si Si5 0.759674 0.286767 0.109827
Si Si6 0.388855 0.392769 0.038169
Si Si7 0.606714 0.789630 0.426887
O O1 0.897838 0.602163 0.750000
O O2 0.793991 0.502376 0.605370
O O3 0.758592 0.681552 0.647028
O O4 0.909967 0.640376 0.560291
O O5 0.000000 0.500000 0.006279
O O6 0.167661 0.504003 0.103305
O O7 0.584048 0.915953 0.750000
O O8 0.748905 0.867796 0.698892
O O9 0.741642 0.039030 0.790816
O O10 0.638201 0.618558 0.164539
O O11 0.649618 0.700704 0.361513
O O12 0.597700 0.863472 0.084772
O O13 0.684813 0.323798 0.021252
O O14 0.862002 0.283895 0.050531
O O15 0.372507 0.499958 0.991954
O O16 0.789938 0.710063 0.250000
#
# Coordination Sequence:
#
# PCOD9558739 Si02
#       7
#     8   8   8   8   8   8   8
#     4  11  25  41  70  99 135 194 243 298 369 435
#     4   9  22  41  63  96 139 180 224 294 360 423
#     4  11  25  43  67 102 142 178 236 301 363 439
#     4  12  25  39  69 103 135 181 230 299 364 432
#     4  11  23  44  66  94 141 186 233 292 368 432
#     4  11  24  44  70 100 141 186 235 299 366 429
#     4  10  25  41  64  99 141 178 236 297 355 444
#
# _framework density 22.422927999999999
#
# number of rings (size 3 to 8) (size 9 to 14) (size 15 to 20)
#    0.000    1.286    2.857    1.286    8.000    4.286 
#    0.000    0.000    0.000    3.857    0.000    0.000 
#    0.000    0.000    0.000    0.000    0.000    0.000 
#
# Total GULP energy -311856.129065 kJ/mol
# GULP energy per Si atom -5568.859448 kJ/mol
# Density = 2.237189 g / cm^3
# Si number density = 22.422928 Si / 1000 Ang^3
#
#
#
# Elastic Constant Matrix: (Units=GPa)
#
#
# Indices 1 2 3 4 5 6 
#
# 1 125.0279 47.9895 42.0417 0.0000 0.0000 0.0000
# 2 47.9895 125.0243 42.0417 0.0000 0.0000 0.0000
# 3 42.0417 42.0417 52.9328 0.0000 0.0000 0.0000
# 4 0.0000 0.0000 0.0000 35.3276 0.0000 0.0000
# 5 0.0000 0.0000 0.0000 0.0000 35.3277 0.0000
# 6 0.0000 0.0000 0.0000 0.0000 0.0000 43.7117
#
#
#
# Elastic Compliance Matrix: (Units=1/GPa)
#
#
# Indices 1 2 3 4 5 6 
#
# 1 0.011197 -0.001784 -0.007476 0.000000 0.000000 0.000000
# 2 -0.001784 0.011197 -0.007477 0.000000 0.000000 0.000000
# 3 -0.007476 -0.007477 0.030768 0.000000 0.000000 0.000000
# 4 0.000000 0.000000 0.000000 0.028307 0.000000 0.000000
# 5 0.000000 0.000000 0.000000 0.000000 0.028306 0.000000
# 6 0.000000 0.000000 0.000000 0.000000 0.000000 0.022877
#
#
# Mechanical properties :
#
#
# Convention : Reuss Voigt Hill
#
# Bulk Modulus (GPa) = 50.79009 63.01453 56.90231
# Shear Modulus (GPa) = 28.95382 34.26753 31.61068
#
# Velocity S-wave (km/s) = 3.59731 3.91351 3.75873
# Velocity P-wave (km/s) = 6.32094 6.97025 6.65352
#
# Compressibility (1/GPa) = 0.01968888
#
# Stress axis : x y z
#
# Youngs Moduli (GPa) = 89.31079 89.30739 32.50112
#
# Poissons Ratio (x) = 0.15930 0.24299
# Poissons Ratio (y) = 0.15931 0.24300
# Poissons Ratio (z) = 0.66771 0.66772
#
# Static dielectric constant tensor:
#      x y z
#    x 1.922080 0.000000 0.000000 
#    y 0.000000 1.922080 0.000000 
#    z 0.000000 0.000000 1.906150 
# 
# From -- ./inp_files/4263.got.cif
#   From: 2010.05.17/outbox.cif.g08.bks.cpg/sg118_3_cif.got.tgz:4263.got - 2010.05.20 11:17:24.
