data_PCOD9558566
_publ_section_title
;
Structure prediction by ZEFSAII (Michael W. Deem and Ramdas Pophale) SiO2 
 PCOD9558566
Probable space group: P -4 N 2
;
_chemical_formula_sum "Si O2"
_cell_formula_units_Z 56
_cell_length_a 14.147953
_cell_length_b 14.147953
_cell_length_c 11.291998
_cell_angle_alpha 90.000000
_cell_angle_beta 90.000000
_cell_angle_gamma 90.000000
_cell_volume 2260.257970
_symmetry_space_group_name_H-M "P -4 N 2"
_symmetry_group_IT_number 118
_symmetry_cell_setting 'tetragonal'
loop_
_space_group_symop_operation_xyz
x,y,z
y,-x,-z
-x,-y,z
-y,x,-z
1/2+y,1/2+x,1/2-z
1/2-y,1/2-x,1/2-z
1/2-x,1/2+y,1/2+z
1/2+x,1/2-y,1/2+z
loop_
_atom_site_type_symbol
_atom_site_label
_atom_site_fract_x
_atom_site_fract_y
_atom_site_fract_z
Si Si1 0.950898 0.752023 0.815193
Si Si2 0.881762 0.428016 0.383517
Si Si3 0.978021 0.858394 0.443994
Si Si4 0.340906 0.223213 0.414679
Si Si5 0.405502 0.766882 0.568175
Si Si6 0.825364 0.489149 0.924276
Si Si7 0.969929 0.105160 0.175679
O O1 0.061083 0.756797 0.856095
O O2 0.953041 0.689094 0.696918
O O3 0.903761 0.856174 0.805681
O O4 0.902662 0.706888 0.930006
O O5 0.896727 0.396727 0.250000
O O6 0.797004 0.367202 0.446354
O O7 0.850041 0.536254 0.372677
O O8 0.962104 0.408986 0.483343
O O9 0.969407 0.753083 0.488318
O O10 0.988166 0.869097 0.304641
O O11 0.897577 0.926085 0.495132
O O12 0.263281 0.302218 0.393811
O O13 0.307689 0.119117 0.377574
O O14 0.474473 0.675566 0.587933
O O15 0.000000 0.000000 0.143244
#
# Coordination Sequence:
#
# PCOD9558566 Si02
#       7
#     8   8   8   8   8   8   8
#     4  11  19  35  51  77 116 153 194 239 302 373
#     4   9  20  38  56  78 119 164 204 245 302 365
#     4  11  20  36  52  84 120 157 192 249 307 384
#     4   9  21  34  54  80 117 159 199 242 301 370
#     4  11  22  34  54  85 116 158 198 253 300 361
#     4  10  21  36  56  77 124 163 201 245 309 377
#     4  12  21  31  53  81 123 154 191 239 311 377
#
# _framework density 24.775933999999999
#
# number of rings (size 3 to 8) (size 9 to 14) (size 15 to 20)
#    0.857    0.714    4.286    3.000    0.000    0.000 
#    0.000    0.000    0.000    0.000    0.000    1.000 
#    0.000    2.286    0.000    0.000    0.000    0.000 
#
# Total GULP energy -312426.474487 kJ/mol
# GULP energy per Si atom -5579.044187 kJ/mol
# Density = 2.471954 g / cm^3
# Si number density = 24.775934 Si / 1000 Ang^3
#
#
#
# Elastic Constant Matrix: (Units=GPa)
#
#
# Indices 1 2 3 4 5 6 
#
# 1 54.7731 55.6566 46.4422 0.0000 0.0000 0.0000
# 2 55.6566 54.7731 46.4422 0.0000 0.0000 0.0000
# 3 46.4422 46.4422 173.7226 0.0000 0.0000 0.0000
# 4 0.0000 0.0000 0.0000 25.6481 0.0000 0.0000
# 5 0.0000 0.0000 0.0000 0.0000 25.6481 0.0000
# 6 0.0000 0.0000 0.0000 0.0000 0.0000 29.7398
#
#
#
# Elastic Compliance Matrix: (Units=1/GPa)
#
#
# Indices 1 2 3 4 5 6 
#
# 1 -0.560114 0.571797 -0.003123 0.000000 0.000000 0.000000
# 2 0.571797 -0.560114 -0.003123 0.000000 0.000000 0.000000
# 3 -0.003123 -0.003123 0.007426 0.000000 0.000000 0.000000
# 4 0.000000 0.000000 0.000000 0.038989 0.000000 0.000000
# 5 0.000000 0.000000 0.000000 0.000000 0.038989 0.000000
# 6 0.000000 0.000000 0.000000 0.000000 0.000000 0.033625
#
#
# Mechanical properties :
#
#
# Convention : Reuss Voigt Hill
#
# Bulk Modulus (GPa) = 54.64919 64.48344 59.56632
# Shear Modulus (GPa) = -2.35161 25.18905 11.41872
#
# Velocity S-wave (km/s) = -0.97530 3.19199 2.14914
# Velocity P-wave (km/s) = 4.56475 6.29827 5.50024
#
# Compressibility (1/GPa) = 0.01829853
#
# Stress axis : x y z
#
# Youngs Moduli (GPa) = -1.78535 -1.78535 134.65923
#
# Poissons Ratio (x) = 1.02086 0.42056
# Poissons Ratio (y) = 1.02086 0.42056
# Poissons Ratio (z) = -0.00558 -0.00558
#
# Static dielectric constant tensor:
#      x y z
#    x 2.001450 0.000000 0.000000 
#    y 0.000000 2.001450 0.000000 
#    z 0.000000 0.000000 2.010850 
# 
# From -- ./inp_files/3500.got.cif
#   From: 2010.05.17/outbox.cif.g08.bks.cpg/sg118_2_cif.got.tgz:3500.got - 2010.05.20 11:17:24.
