data_PCOD9558614
_publ_section_title
;
Structure prediction by ZEFSAII (Michael W. Deem and Ramdas Pophale) SiO2 
 PCOD9558614
Probable space group: P -4 N 2
;
_chemical_formula_sum "Si O2"
_cell_formula_units_Z 40
_cell_length_a 8.547758
_cell_length_b 8.547758
_cell_length_c 27.004271
_cell_angle_alpha 90.000000
_cell_angle_beta 90.000000
_cell_angle_gamma 90.000000
_cell_volume 1973.044561
_symmetry_space_group_name_H-M "P -4 N 2"
_symmetry_group_IT_number 118
_symmetry_cell_setting 'tetragonal'
loop_
_space_group_symop_operation_xyz
x,y,z
y,-x,-z
-x,-y,z
-y,x,-z
1/2+y,1/2+x,1/2-z
1/2-y,1/2-x,1/2-z
1/2-x,1/2+y,1/2+z
1/2+x,1/2-y,1/2+z
loop_
_atom_site_type_symbol
_atom_site_label
_atom_site_fract_x
_atom_site_fract_y
_atom_site_fract_z
Si Si1 0.733432 0.697378 0.083784
Si Si2 0.336768 0.694308 0.487048
Si Si3 0.291705 0.234257 0.808555
Si Si4 0.184132 0.460743 0.613614
Si Si5 0.500000 0.500000 0.855910
Si Si6 0.500000 0.000000 0.633551
O O1 0.580268 0.629230 0.109491
O O2 0.869401 0.579590 0.099638
O O3 0.766264 0.871514 0.105002
O O4 0.724170 0.716595 0.024812
O O5 0.510969 0.705449 0.511311
O O6 0.351775 0.762956 0.432407
O O7 0.274915 0.225086 0.750000
O O8 0.129266 0.271073 0.836569
O O9 0.412711 0.371681 0.823025
O O10 0.368708 0.079271 0.831997
O O11 0.000000 0.500000 0.611236
#
# Coordination Sequence:
#
# PCOD9558614 Si02
#       6
#     8   8   8   8   4   4
#     4  10  21  41  65  91 131 164 210 265 328 385
#     4   9  19  36  62  91 122 163 209 256 314 384
#     4  11  24  43  65  91 129 169 219 270 330 381
#     4  11  22  40  62  94 129 166 213 263 315 394
#     4  10  22  44  61  98 130 164 215 276 320 398
#     4  10  23  40  66  94 122 166 219 272 326 384
#
# _framework density 20.273235
#
# number of rings (size 3 to 8) (size 9 to 14) (size 15 to 20)
#    0.000    1.800    2.000    1.500    1.400    4.400 
#    3.600    3.000    0.000    0.000    0.000    0.000 
#    0.000    0.000    0.000    0.000    0.000    0.000 
#
# Total GULP energy -223612.652454 kJ/mol
# GULP energy per Si atom -5590.316311 kJ/mol
# Density = 2.022709 g / cm^3
# Si number density = 20.273235 Si / 1000 Ang^3
#
#
#
# Elastic Constant Matrix: (Units=GPa)
#
#
# Indices 1 2 3 4 5 6 
#
# 1 38.4556 -8.5242 5.4028 0.0000 0.0000 0.0000
# 2 -8.5242 38.4557 5.4030 0.0000 0.0000 0.0000
# 3 5.4028 5.4030 77.8533 0.0000 0.0000 0.0000
# 4 0.0000 0.0000 0.0000 20.3829 0.0000 0.0000
# 5 0.0000 0.0000 0.0000 0.0000 20.3830 0.0000
# 6 0.0000 0.0000 0.0000 0.0000 0.0000 27.3242
#
#
#
# Elastic Compliance Matrix: (Units=1/GPa)
#
#
# Indices 1 2 3 4 5 6 
#
# 1 0.027777 0.006491 -0.002378 0.000000 0.000000 0.000000
# 2 0.006491 0.027777 -0.002378 0.000000 0.000000 0.000000
# 3 -0.002378 -0.002378 0.013175 0.000000 0.000000 0.000000
# 4 0.000000 0.000000 0.000000 0.049061 0.000000 0.000000
# 5 0.000000 0.000000 0.000000 0.000000 0.049060 0.000000
# 6 0.000000 0.000000 0.000000 0.000000 0.000000 0.036598
#
#
# Mechanical properties :
#
#
# Convention : Reuss Voigt Hill
#
# Bulk Modulus (GPa) = 13.85068 17.70308 15.77688
# Shear Modulus (GPa) = 22.31707 23.78357 23.05032
#
# Velocity S-wave (km/s) = 3.32145 3.42885 3.37558
# Velocity P-wave (km/s) = 4.64287 4.94239 4.79497
#
# Compressibility (1/GPa) = 0.07219860
#
# Stress axis : x y z
#
# Youngs Moduli (GPa) = 36.00099 36.00108 75.90271
#
# Poissons Ratio (x) = -0.23369 0.18051
# Poissons Ratio (y) = -0.23369 0.18051
# Poissons Ratio (z) = 0.08562 0.08562
#
# Static dielectric constant tensor:
#      x y z
#    x 1.733540 0.000000 0.000000 
#    y 0.000000 1.733540 0.000000 
#    z 0.000000 0.000000 1.672880 
# 
# From -- ./inp_files/6060.got.cif
#   From: 2010.05.17/outbox.cif.g08.bks.cpg/sg118_4_cif.got.tgz:6060.got - 2010.05.20 11:17:24.
