data_PCOD9558700
_publ_section_title
;
Structure prediction by ZEFSAII (Michael W. Deem and Ramdas Pophale) SiO2 
 PCOD9558700
Probable space group: P -4 N 2
;
_chemical_formula_sum "Si O2"
_cell_formula_units_Z 40
_cell_length_a 8.529575
_cell_length_b 8.529575
_cell_length_c 22.804159
_cell_angle_alpha 90.000000
_cell_angle_beta 90.000000
_cell_angle_gamma 90.000000
_cell_volume 1659.085795
_symmetry_space_group_name_H-M "P -4 N 2"
_symmetry_group_IT_number 118
_symmetry_cell_setting 'tetragonal'
loop_
_space_group_symop_operation_xyz
x,y,z
y,-x,-z
-x,-y,z
-y,x,-z
1/2+y,1/2+x,1/2-z
1/2-y,1/2-x,1/2-z
1/2-x,1/2+y,1/2+z
1/2+x,1/2-y,1/2+z
loop_
_atom_site_type_symbol
_atom_site_label
_atom_site_fract_x
_atom_site_fract_y
_atom_site_fract_z
Si Si1 0.373646 0.195529 0.893881
Si Si2 0.592776 0.833623 0.019419
Si Si3 0.405818 0.659560 0.585851
Si Si4 0.172630 0.249073 0.313303
Si Si5 0.466260 0.815975 0.144103
O O1 0.515494 0.211623 0.848748
O O2 0.230627 0.286314 0.862751
O O3 0.304151 0.027061 0.912527
O O4 0.430754 0.253255 0.958069
O O5 0.778999 0.843313 0.033460
O O6 0.529150 0.762957 0.079920
O O7 0.500000 0.000000 0.017645
O O8 0.500000 0.500000 0.583810
O O9 0.313853 0.684637 0.646768
O O10 0.174989 0.325012 0.250000
O O11 0.210887 0.063585 0.310357
O O12 0.500000 0.000000 0.152732
#
# Coordination Sequence:
#
# PCOD9558700 Si02
#       5
#     8   8   8   8   8
#     4  12  25  42  71 110 147 197 263 322 403 470
#     4  10  23  40  64 101 153 198 242 321 392 484
#     4  11  25  42  69 105 143 204 259 318 403 473
#     4  11  26  49  71 102 152 200 259 331 393 479
#     4  10  24  46  71 106 150 197 256 313 401 477
#
# _framework density 24.109660000000002
#
# number of rings (size 3 to 8) (size 9 to 14) (size 15 to 20)
#    0.000    1.200    0.000    6.000   14.000    3.600 
#    0.000    2.000    0.000    0.000    0.000    0.000 
#    0.000    0.000    0.000    0.000    0.000    0.000 
#
# Total GULP energy -223577.804202 kJ/mol
# GULP energy per Si atom -5589.445105 kJ/mol
# Density = 2.405479 g / cm^3
# Si number density = 24.109660 Si / 1000 Ang^3
#
#
#
# Elastic Constant Matrix: (Units=GPa)
#
#
# Indices 1 2 3 4 5 6 
#
# 1 119.7710 46.8257 36.9514 0.0000 0.0000 0.0000
# 2 46.8257 119.7708 36.9513 0.0000 0.0000 0.0000
# 3 36.9514 36.9513 131.7288 0.0000 0.0000 0.0000
# 4 0.0000 0.0000 0.0000 24.9274 0.0000 0.0000
# 5 0.0000 0.0000 0.0000 0.0000 24.9278 0.0000
# 6 0.0000 0.0000 0.0000 0.0000 0.0000 43.8340
#
#
#
# Elastic Compliance Matrix: (Units=1/GPa)
#
#
# Indices 1 2 3 4 5 6 
#
# 1 0.010282 -0.003427 -0.001923 0.000000 0.000000 0.000000
# 2 -0.003427 0.010282 -0.001923 0.000000 0.000000 0.000000
# 3 -0.001923 -0.001923 0.008670 0.000000 0.000000 0.000000
# 4 0.000000 0.000000 0.000000 0.040116 0.000000 0.000000
# 5 0.000000 0.000000 0.000000 0.000000 0.040116 0.000000
# 6 0.000000 0.000000 0.000000 0.000000 0.000000 0.022813
#
#
# Mechanical properties :
#
#
# Convention : Reuss Voigt Hill
#
# Bulk Modulus (GPa) = 68.07739 68.08081 68.07910
# Shear Modulus (GPa) = 32.95494 35.44067 34.19781
#
# Velocity S-wave (km/s) = 3.70114 3.83819 3.77029
# Velocity P-wave (km/s) = 6.82367 6.92398 6.87401
#
# Compressibility (1/GPa) = 0.01468916
#
# Stress axis : x y z
#
# Youngs Moduli (GPa) = 97.25490 97.25480 115.33711
#
# Poissons Ratio (x) = 0.33326 0.22180
# Poissons Ratio (y) = 0.33326 0.22180
# Poissons Ratio (z) = 0.18703 0.18703
#
# Static dielectric constant tensor:
#      x y z
#    x 2.040630 0.000000 0.000000 
#    y 0.000000 2.040630 0.000000 
#    z 0.000000 0.000000 1.908420 
# 
# From -- ./inp_files/6044.got.cif
#   From: 2010.05.17/outbox.cif.g08.bks.cpg/sg118_4_cif.got.tgz:6044.got - 2010.05.20 11:17:24.
