data_PCOD9558809
_publ_section_title
;
Structure prediction by ZEFSAII (Michael W. Deem and Ramdas Pophale) SiO2 
 PCOD9558809
Probable space group: P -4 N 2
;
_chemical_formula_sum "Si O2"
_cell_formula_units_Z 26
_cell_length_a 12.943979
_cell_length_b 12.943979
_cell_length_c 7.333550
_cell_angle_alpha 90.000000
_cell_angle_beta 90.000000
_cell_angle_gamma 90.000000
_cell_volume 1228.711312
_symmetry_space_group_name_H-M "P -4 N 2"
_symmetry_group_IT_number 118
_symmetry_cell_setting 'tetragonal'
loop_
_space_group_symop_operation_xyz
x,y,z
y,-x,-z
-x,-y,z
-y,x,-z
1/2+y,1/2+x,1/2-z
1/2-y,1/2-x,1/2-z
1/2-x,1/2+y,1/2+z
1/2+x,1/2-y,1/2+z
loop_
_atom_site_type_symbol
_atom_site_label
_atom_site_fract_x
_atom_site_fract_y
_atom_site_fract_z
Si Si1 0.000000 0.500000 0.250000
Si Si2 0.664124 0.689253 0.366616
Si Si3 0.031293 0.832432 0.531438
Si Si4 0.474970 0.225541 0.662364
O O1 0.105526 0.500805 0.365538
O O2 0.751579 0.748422 0.250000
O O3 0.626730 0.739633 0.554065
O O4 0.927908 0.797674 0.107586
O O5 0.565228 0.696383 0.233189
O O6 0.920176 0.886677 0.529319
O O7 0.034885 0.744283 0.379682
#
# Coordination Sequence:
#
# PCOD9558809 Si02
#       4
#     2   8   8   8
#     4  12  24  44  62  92 140 174 204 284 342 388
#     4  11  22  40  64  95 125 173 223 266 333 407
#     4   9  19  37  63  94 123 159 215 274 323 386
#     4  11  23  41  66  92 133 173 216 275 336 397
#
# _framework density 21.160381000000001
#
# number of rings (size 3 to 8) (size 9 to 14) (size 15 to 20)
#    0.000    1.538    1.538    3.692    0.000    3.077 
#    0.000    6.923    0.000    0.000    0.000    0.000 
#    0.000    0.000    0.000    0.000    0.000    0.000 
#
# Total GULP energy -145223.559791 kJ/mol
# GULP energy per Si atom -5585.521530 kJ/mol
# Density = 2.111222 g / cm^3
# Si number density = 21.160381 Si / 1000 Ang^3
#
#
#
# Elastic Constant Matrix: (Units=GPa)
#
#
# Indices 1 2 3 4 5 6 
#
# 1 76.8280 10.0953 23.5012 0.0000 0.0000 0.0000
# 2 10.0953 76.8298 23.5010 0.0000 0.0000 0.0000
# 3 23.5012 23.5010 54.3743 0.0000 0.0000 0.0000
# 4 0.0000 0.0000 0.0000 20.3403 0.0000 0.0000
# 5 0.0000 0.0000 0.0000 0.0000 20.3397 0.0000
# 6 0.0000 0.0000 0.0000 0.0000 0.0000 23.7933
#
#
#
# Elastic Compliance Matrix: (Units=1/GPa)
#
#
# Indices 1 2 3 4 5 6 
#
# 1 0.014999 0.000014 -0.006489 0.000000 0.000000 0.000000
# 2 0.000014 0.014999 -0.006489 0.000000 0.000000 0.000000
# 3 -0.006489 -0.006489 0.024000 0.000000 0.000000 0.000000
# 4 0.000000 0.000000 0.000000 0.049163 0.000000 0.000000
# 5 0.000000 0.000000 0.000000 0.000000 0.049165 0.000000
# 6 0.000000 0.000000 0.000000 0.000000 0.000000 0.042029
#
#
# Mechanical properties :
#
#
# Convention : Reuss Voigt Hill
#
# Bulk Modulus (GPa) = 35.62404 35.80301 35.71352
# Shear Modulus (GPa) = 21.77332 22.95697 22.36514
#
# Velocity S-wave (km/s) = 3.21123 3.29736 3.25458
# Velocity P-wave (km/s) = 5.53364 5.60833 5.57111
#
# Compressibility (1/GPa) = 0.02807093
#
# Stress axis : x y z
#
# Youngs Moduli (GPa) = 66.67046 66.67243 41.66662
#
# Poissons Ratio (x) = -0.00093 0.27037
# Poissons Ratio (y) = -0.00093 0.27036
# Poissons Ratio (z) = 0.43262 0.43261
#
# Static dielectric constant tensor:
#      x y z
#    x 1.772950 0.000000 0.000000 
#    y 0.000000 1.772950 0.000000 
#    z 0.000000 0.000000 1.754600 
# 
# From -- ./inp_files/1416.got.cif
#   From: 2010.05.17/outbox.cif.g08.bks.cpg/sg118_1_cif.got.tgz:1416.got - 2010.05.20 11:17:24.
