data_PCOD9558498
_publ_section_title
;
Structure prediction by ZEFSAII (Michael W. Deem and Ramdas Pophale) SiO2 
 PCOD9558498
Probable space group: P -4 N 2
;
_chemical_formula_sum "Si O2"
_cell_formula_units_Z 28
_cell_length_a 9.017376
_cell_length_b 9.017376
_cell_length_c 16.070211
_cell_angle_alpha 90.000000
_cell_angle_beta 90.000000
_cell_angle_gamma 90.000000
_cell_volume 1306.718191
_symmetry_space_group_name_H-M "P -4 N 2"
_symmetry_group_IT_number 118
_symmetry_cell_setting 'tetragonal'
loop_
_space_group_symop_operation_xyz
x,y,z
y,-x,-z
-x,-y,z
-y,x,-z
1/2+y,1/2+x,1/2-z
1/2-y,1/2-x,1/2-z
1/2-x,1/2+y,1/2+z
1/2+x,1/2-y,1/2+z
loop_
_atom_site_type_symbol
_atom_site_label
_atom_site_fract_x
_atom_site_fract_y
_atom_site_fract_z
Si Si1 0.263640 0.184898 0.661558
Si Si2 0.536215 0.788314 0.318474
Si Si3 0.500000 0.500000 0.220886
Si Si4 0.734543 0.411252 0.502177
O O1 0.344202 0.155799 0.750000
O O2 0.213008 0.358212 0.668481
O O3 0.121881 0.079926 0.664939
O O4 0.358639 0.175471 0.578256
O O5 0.604548 0.895453 0.250000
O O6 0.567811 0.623642 0.282657
O O7 0.604774 0.814397 0.409162
O O8 0.581766 0.317253 0.506578
#
# Coordination Sequence:
#
# PCOD9558498 Si02
#       4
#     8   8   4   8
#     4   9  18  33  57  86 118 151 192 241 290 344
#     4  10  20  36  61  90 117 154 202 244 287 350
#     4  10  20  36  58  86 122 154 188 246 302 338
#     4   9  16  32  60  87 112 152 202 244 289 350
#
# _framework density 21.427726
#
# number of rings (size 3 to 8) (size 9 to 14) (size 15 to 20)
#    0.000    2.571    0.000    5.143    0.000    5.143 
#    0.000    7.143    0.000   28.286    0.000    0.000 
#    0.000    0.000    0.000    0.286    0.000    0.000 
#
# Total GULP energy -156271.706570 kJ/mol
# GULP energy per Si atom -5581.132378 kJ/mol
# Density = 2.137896 g / cm^3
# Si number density = 21.427726 Si / 1000 Ang^3
#
#
#
# Elastic Constant Matrix: (Units=GPa)
#
#
# Indices 1 2 3 4 5 6 
#
# 1 49.6441 19.6876 46.3792 0.0000 0.0000 0.0000
# 2 19.6876 49.6432 46.3793 0.0000 0.0000 0.0000
# 3 46.3792 46.3793 215.7573 0.0000 0.0000 0.0000
# 4 0.0000 0.0000 0.0000 9.4347 0.0000 0.0000
# 5 0.0000 0.0000 0.0000 0.0000 9.4341 0.0000
# 6 0.0000 0.0000 0.0000 0.0000 0.0000 25.2317
#
#
#
# Elastic Compliance Matrix: (Units=1/GPa)
#
#
# Indices 1 2 3 4 5 6 
#
# 1 0.026814 -0.006568 -0.004352 0.000000 0.000000 0.000000
# 2 -0.006568 0.026815 -0.004352 0.000000 0.000000 0.000000
# 3 -0.004352 -0.004352 0.006506 0.000000 0.000000 0.000000
# 4 0.000000 0.000000 0.000000 0.105992 0.000000 0.000000
# 5 0.000000 0.000000 0.000000 0.000000 0.105998 0.000000
# 6 0.000000 0.000000 0.000000 0.000000 0.000000 0.039633
#
#
# Mechanical properties :
#
#
# Convention : Reuss Voigt Hill
#
# Bulk Modulus (GPa) = 33.79535 59.99296 46.89415
# Shear Modulus (GPa) = 14.19790 22.32667 18.26228
#
# Velocity S-wave (km/s) = 2.57688 3.23143 2.92254
# Velocity P-wave (km/s) = 4.96586 6.47931 5.77240
#
# Compressibility (1/GPa) = 0.02958987
#
# Stress axis : x y z
#
# Youngs Moduli (GPa) = 37.29407 37.29315 153.70641
#
# Poissons Ratio (x) = 0.24494 0.66894
# Poissons Ratio (y) = 0.24495 0.66896
# Poissons Ratio (z) = 0.16231 0.16231
#
# Static dielectric constant tensor:
#      x y z
#    x 1.815350 0.000000 0.000000 
#    y 0.000000 1.815350 0.000000 
#    z 0.000000 0.000000 1.815030 
# 
# From -- ./inp_files/4597.got.cif
#   From: 2010.05.17/outbox.cif.g08.bks.cpg/sg118_3_cif.got.tgz:4597.got - 2010.05.20 11:17:24.
