data_PCOD9558788
_publ_section_title
;
Structure prediction by ZEFSAII (Michael W. Deem and Ramdas Pophale) SiO2 
 PCOD9558788
Probable space group: P -4 N 2
;
_chemical_formula_sum "Si O2"
_cell_formula_units_Z 48
_cell_length_a 8.943352
_cell_length_b 8.943352
_cell_length_c 28.831570
_cell_angle_alpha 90.000000
_cell_angle_beta 90.000000
_cell_angle_gamma 90.000000
_cell_volume 2306.051176
_symmetry_space_group_name_H-M "P -4 N 2"
_symmetry_group_IT_number 118
_symmetry_cell_setting 'tetragonal'
loop_
_space_group_symop_operation_xyz
x,y,z
y,-x,-z
-x,-y,z
-y,x,-z
1/2+y,1/2+x,1/2-z
1/2-y,1/2-x,1/2-z
1/2-x,1/2+y,1/2+z
1/2+x,1/2-y,1/2+z
loop_
_atom_site_type_symbol
_atom_site_label
_atom_site_fract_x
_atom_site_fract_y
_atom_site_fract_z
Si Si1 0.683623 0.153775 0.592451
Si Si2 0.934402 0.756487 0.504275
Si Si3 0.746680 0.008091 0.747535
Si Si4 0.472026 0.165687 0.103127
Si Si5 0.954740 0.164212 0.150733
Si Si6 0.879642 0.181383 0.350251
O O1 0.655150 0.117206 0.538633
O O2 0.548264 0.208999 0.623721
O O3 0.800873 0.291148 0.594148
O O4 0.755524 0.004005 0.614457
O O5 0.941792 0.678266 0.553950
O O6 0.098990 0.825531 0.494379
O O7 0.611516 0.888484 0.750000
O O8 0.822941 0.960519 0.699598
O O9 0.670596 0.170596 0.750000
O O10 0.836184 0.993259 0.794816
O O11 0.528311 0.304350 0.134053
O O12 0.500000 0.000000 0.122340
O O13 0.788697 0.232582 0.148927
O O14 0.000000 0.000000 0.132307
#
# Coordination Sequence:
#
# PCOD9558788 Si02
#       6
#     8   8   8   8   8   8
#     4  11  21  38  63  88 116 166 214 254 311 387
#     4   9  18  36  59  85 114 154 214 260 298 373
#     4   9  18  36  60  86 114 156 212 260 301 373
#     4  11  23  38  59  89 128 160 203 265 327 376
#     4  11  23  38  60  90 129 158 201 266 330 376
#     4  11  21  39  64  88 120 165 213 257 310 386
#
# _framework density 20.814803000000001
#
# number of rings (size 3 to 8) (size 9 to 14) (size 15 to 20)
#    0.000    1.667    3.333    2.000    0.000    2.667 
#    0.000    0.000    0.000    3.500    0.000    0.000 
#    0.000    0.000    0.000    0.000    0.000    0.000 
#
# Total GULP energy -267811.698125 kJ/mol
# GULP energy per Si atom -5579.410378 kJ/mol
# Density = 2.076743 g / cm^3
# Si number density = 20.814803 Si / 1000 Ang^3
#
#
#
# Elastic Constant Matrix: (Units=GPa)
#
#
# Indices 1 2 3 4 5 6 
#
# 1 70.8268 10.6960 9.9898 0.0000 0.0000 0.0000
# 2 10.6960 70.8268 9.9898 0.0000 0.0000 0.0000
# 3 9.9898 9.9898 114.5279 0.0000 0.0000 0.0000
# 4 0.0000 0.0000 0.0000 77.3229 0.0000 0.0000
# 5 0.0000 0.0000 0.0000 0.0000 77.3466 0.0000
# 6 0.0000 0.0000 0.0000 0.0000 0.0000 24.1420
#
#
#
# Elastic Compliance Matrix: (Units=1/GPa)
#
#
# Indices 1 2 3 4 5 6 
#
# 1 0.014582 -0.002048 -0.001093 0.000000 0.000000 0.000000
# 2 -0.002048 0.014582 -0.001093 0.000000 0.000000 0.000000
# 3 -0.001093 -0.001093 0.008922 0.000000 0.000000 0.000000
# 4 0.000000 0.000000 0.000000 0.012933 0.000000 0.000000
# 5 0.000000 0.000000 0.000000 0.000000 0.012929 0.000000
# 6 0.000000 0.000000 0.000000 0.000000 0.000000 0.041422
#
#
# Mechanical properties :
#
#
# Convention : Reuss Voigt Hill
#
# Bulk Modulus (GPa) = 33.76341 35.28138 34.52240
# Shear Modulus (GPa) = 40.41642 50.79603 45.60622
#
# Velocity S-wave (km/s) = 4.41127 4.94538 4.68594
# Velocity P-wave (km/s) = 6.49629 7.04244 6.77487
#
# Compressibility (1/GPa) = 0.02961786
#
# Stress axis : x y z
#
# Youngs Moduli (GPa) = 68.57562 68.57561 112.07960
#
# Poissons Ratio (x) = 0.14044 0.12254
# Poissons Ratio (y) = 0.14044 0.12254
# Poissons Ratio (z) = 0.07498 0.07498
#
# Static dielectric constant tensor:
#      x y z
#    x 1.544280 0.000000 0.000000 
#    y 0.000000 1.544520 0.000000 
#    z 0.000000 0.000000 1.740560 
# 
# From -- ./inp_files/6825.got.cif
#   From: 2010.05.17/outbox.cif.g08.bks.cpg/sg118_4_cif.got.tgz:6825.got - 2010.05.20 11:17:24.
