data_PCOD9559364
_publ_section_title
;
Structure prediction by ZEFSAII (Michael W. Deem and Ramdas Pophale) SiO2 
 PCOD9559364
Probable space group: I -4 M 2
;
_chemical_formula_sum "Si O2"
_cell_formula_units_Z 56
_cell_length_a 18.428624
_cell_length_b 18.428624
_cell_length_c 8.019106
_cell_angle_alpha 90.000000
_cell_angle_beta 90.000000
_cell_angle_gamma 90.000000
_cell_volume 2723.402129
_symmetry_space_group_name_H-M "I -4 M 2"
_symmetry_group_IT_number 119
_symmetry_cell_setting 'tetragonal'
loop_
_space_group_symop_operation_xyz
x,y,z
y,-x,-z
-x,-y,z
-y,x,-z
y,x,-z
-y,-x,-z
-x,y,z
x,-y,z
1/2+x,1/2+y,1/2+z
1/2+y,1/2-x,1/2-z
1/2-x,1/2-y,1/2+z
1/2-y,1/2+x,1/2-z
1/2+y,1/2+x,1/2-z
1/2-y,1/2-x,1/2-z
1/2-x,1/2+y,1/2+z
1/2+x,1/2-y,1/2+z
loop_
_atom_site_type_symbol
_atom_site_label
_atom_site_fract_x
_atom_site_fract_y
_atom_site_fract_z
Si Si1 0.087285 0.803857 0.071790
Si Si2 0.586718 0.201851 0.265562
Si Si3 0.917974 0.417974 0.250000
Si Si4 0.763598 0.585284 0.085598
O O1 0.114657 0.779341 0.254300
O O2 0.000000 0.810838 0.075796
O O3 0.124736 0.875265 0.000000
O O4 0.105131 0.741396 0.937489
O O5 0.500000 0.195340 0.256879
O O6 0.625137 0.125137 0.250000
O O7 0.612852 0.246665 0.101797
O O8 0.912359 0.500000 0.323860
O O9 0.849656 0.411367 0.127611
O O10 0.744352 0.500000 0.081087
#
# Coordination Sequence:
#
# PCOD9559364 Si02
#       4
#    16  16   8  16
#     4  10  22  41  61  83 112 147 192 248 302 353
#     4  10  21  37  57  86 121 156 194 234 280 342
#     4   9  16  28  52  82 112 156 200 224 263 330
#     4   9  18  33  53  78 114 149 180 234 290 329
#
# _framework density 20.562515999999999
#
# number of rings (size 3 to 8) (size 9 to 14) (size 15 to 20)
#    0.000    2.429    0.000    1.714    0.000    5.143 
#    7.714    2.857    0.000    0.000    0.000    8.000 
#    0.000    0.000    0.000    0.000    0.000    0.000 
#
# Total GULP energy -156109.052742 kJ/mol
# GULP energy per Si atom -5575.323312 kJ/mol
# Density = 2.051571 g / cm^3
# Si number density = 20.562516 Si / 1000 Ang^3
#
#
#
# Elastic Constant Matrix: (Units=GPa)
#
#
# Indices 1 2 3 4 5 6 
#
# 1 30.2635 26.5204 17.2272 0.0000 0.0000 0.0000
# 2 26.5204 30.2552 17.2281 0.0000 0.0000 0.0000
# 3 17.2272 17.2281 131.8242 0.0000 0.0000 0.0000
# 4 0.0000 0.0000 0.0000 17.1409 0.0000 0.0000
# 5 0.0000 0.0000 0.0000 0.0000 17.1409 0.0000
# 6 0.0000 0.0000 0.0000 0.0000 0.0000 32.4148
#
#
#
# Elastic Compliance Matrix: (Units=1/GPa)
#
#
# Indices 1 2 3 4 5 6 
#
# 1 0.143269 -0.124162 -0.002496 0.000000 0.000000 0.000000
# 2 -0.124162 0.143312 -0.002504 0.000000 0.000000 0.000000
# 3 -0.002496 -0.002504 0.008239 0.000000 0.000000 0.000000
# 4 0.000000 0.000000 0.000000 0.058340 0.000000 0.000000
# 5 0.000000 0.000000 0.000000 0.000000 0.058340 0.000000
# 6 0.000000 0.000000 0.000000 0.000000 0.000000 0.030850
#
#
# Mechanical properties :
#
#
# Convention : Reuss Voigt Hill
#
# Bulk Modulus (GPa) = 27.39914 34.92160 31.16037
# Shear Modulus (GPa) = 7.01421 22.09714 14.55567
#
# Velocity S-wave (km/s) = 1.84894 3.28171 2.66348
# Velocity P-wave (km/s) = 4.23224 5.60174 4.96444
#
# Compressibility (1/GPa) = 0.03649749
#
# Stress axis : x y z
#
# Youngs Moduli (GPa) = 6.97989 6.97777 121.37001
#
# Poissons Ratio (x) = 0.86637 0.30295
# Poissons Ratio (y) = 0.86663 0.30387
# Poissons Ratio (z) = 0.01742 0.01747
#
# Static dielectric constant tensor:
#      x y z
#    x 1.731720 0.000000 0.000000 
#    y 0.000000 1.731720 0.000000 
#    z 0.000000 0.000000 1.806580 
# 
# From -- ./inp_files/1980.got.cif
#   From: 2010.05.17/outbox.cif.g08.bks.cpg/sg119_1_cif.got.tgz:1980.got - 2010.05.20 11:21:29.
