data_PCOD9559456
_publ_section_title
;
Structure prediction by ZEFSAII (Michael W. Deem and Ramdas Pophale) SiO2 
 PCOD9559456
Probable space group: I -4 M 2
;
_chemical_formula_sum "Si O2"
_cell_formula_units_Z 60
_cell_length_a 15.116454
_cell_length_b 15.116454
_cell_length_c 11.087937
_cell_angle_alpha 90.000000
_cell_angle_beta 90.000000
_cell_angle_gamma 90.000000
_cell_volume 2533.673233
_symmetry_space_group_name_H-M "I -4 M 2"
_symmetry_group_IT_number 119
_symmetry_cell_setting 'tetragonal'
loop_
_space_group_symop_operation_xyz
x,y,z
y,-x,-z
-x,-y,z
-y,x,-z
y,x,-z
-y,-x,-z
-x,y,z
x,-y,z
1/2+x,1/2+y,1/2+z
1/2+y,1/2-x,1/2-z
1/2-x,1/2-y,1/2+z
1/2-y,1/2+x,1/2-z
1/2+y,1/2+x,1/2-z
1/2-y,1/2-x,1/2-z
1/2-x,1/2+y,1/2+z
1/2+x,1/2-y,1/2+z
loop_
_atom_site_type_symbol
_atom_site_label
_atom_site_fract_x
_atom_site_fract_y
_atom_site_fract_z
Si Si1 0.500000 0.500000 0.000000
Si Si2 0.000000 0.838847 0.318183
Si Si3 0.161728 0.397051 0.385974
Si Si4 0.500000 0.818388 0.010317
Si Si5 0.000000 0.706289 0.792973
Si Si6 0.500000 0.000000 0.250000
Si Si7 0.191207 0.823323 0.180070
O O1 0.418405 0.500000 0.089131
O O2 0.095103 0.840580 0.247691
O O3 0.000000 0.754888 0.406228
O O4 0.181117 0.500000 0.385253
O O5 0.128297 0.371704 0.250000
O O6 0.086240 0.374746 0.480417
O O7 0.249220 0.342101 0.413140
O O8 0.500000 0.783850 0.146182
O O9 0.000000 0.599279 0.809444
O O10 0.084799 0.759416 0.841248
O O11 0.265832 0.765832 0.250000
#
# Coordination Sequence:
#
# PCOD9559456 Si02
#       7
#     2   8  16   8   8   2  16
#     4  12  28  36  56  96 148 164 218 296 344 396
#     4  12  20  39  59  97 139 165 211 276 346 414
#     4  11  19  36  61  97 137 167 208 277 354 412
#     4  12  23  36  69 104 132 168 233 289 340 404
#     4  12  28  45  65  92 131 188 236 284 338 419
#     4  12  28  52  56  80 130 180 248 272 348 416
#     4  11  21  41  64  90 134 184 217 271 345 423
#
# _framework density 23.681031999999998
#
# number of rings (size 3 to 8) (size 9 to 14) (size 15 to 20)
#    0.000    0.533    9.333    2.800    1.867    0.000 
#    0.000    0.000    0.000    0.000    0.000    0.000 
#    0.000    0.000    0.000    0.000    0.000    0.000 
#
# Total GULP energy -167622.083155 kJ/mol
# GULP energy per Si atom -5587.402772 kJ/mol
# Density = 2.362713 g / cm^3
# Si number density = 23.681032 Si / 1000 Ang^3
#
#
#
# Elastic Constant Matrix: (Units=GPa)
#
#
# Indices 1 2 3 4 5 6 
#
# 1 223.4463 106.5384 41.6371 0.0000 0.0000 0.0000
# 2 106.5384 223.4457 41.6365 0.0000 0.0000 0.0000
# 3 41.6371 41.6365 89.9253 0.0000 0.0000 0.0000
# 4 0.0000 0.0000 0.0000 -18.6430 0.0000 0.0000
# 5 0.0000 0.0000 0.0000 0.0000 -18.6448 0.0000
# 6 0.0000 0.0000 0.0000 0.0000 0.0000 38.8318
#
#
#
# Elastic Compliance Matrix: (Units=1/GPa)
#
#
# Indices 1 2 3 4 5 6 
#
# 1 0.005993 -0.002561 -0.001589 0.000000 0.000000 0.000000
# 2 -0.002561 0.005993 -0.001589 0.000000 0.000000 0.000000
# 3 -0.001589 -0.001589 0.012592 0.000000 0.000000 0.000000
# 4 0.000000 0.000000 0.000000 -0.053639 0.000000 0.000000
# 5 0.000000 0.000000 0.000000 0.000000 -0.053634 0.000000
# 6 0.000000 0.000000 0.000000 0.000000 0.000000 0.025752
#
#
# Mechanical properties :
#
#
# Convention : Reuss Voigt Hill
#
# Bulk Modulus (GPa) = 76.34029 101.82680 89.08355
# Shear Modulus (GPa) = -121.65163 23.44249 -49.10457
#
# Velocity S-wave (km/s) = -7.17513 3.14972 -4.55860
# Velocity P-wave (km/s) = 6.02797 7.50469 3.16101
#
# Compressibility (1/GPa) = 0.01309924
#
# Stress axis : x y z
#
# Youngs Moduli (GPa) = 166.87324 166.87316 79.41798
#
# Poissons Ratio (x) = 0.42739 0.12618
# Poissons Ratio (y) = 0.42739 0.12618
# Poissons Ratio (z) = 0.26513 0.26512
#
# Static dielectric constant tensor:
#      x y z
#    x 1.833620 0.000000 0.000000 
#    y 0.000000 1.833620 0.000000 
#    z 0.000000 0.000000 1.978440 
# 
# From -- ./inp_files/5142.got.cif
#   From: 2010.05.17/outbox.cif.g08.bks.cpg/sg119_3_cif.got.tgz:5142.got - 2010.05.20 11:21:29.
