data_PCOD9559640
_publ_section_title
;
Structure prediction by ZEFSAII (Michael W. Deem and Ramdas Pophale) SiO2 
 PCOD9559640
Probable space group: I -4 C 2
;
_chemical_formula_sum "Si O2"
_cell_formula_units_Z 96
_cell_length_a 17.248345
_cell_length_b 17.248345
_cell_length_c 16.165688
_cell_angle_alpha 90.000000
_cell_angle_beta 90.000000
_cell_angle_gamma 90.000000
_cell_volume 4809.379559
_symmetry_space_group_name_H-M "I -4 C 2"
_symmetry_group_IT_number 120
_symmetry_cell_setting 'tetragonal'
loop_
_space_group_symop_operation_xyz
x,y,z
y,-x,-z
-x,-y,z
-y,x,-z
y,x,1/2-z
-y,-x,1/2-z
-x,y,1/2+z
x,-y,1/2+z
1/2+x,1/2+y,1/2+z
1/2+y,1/2-x,1/2-z
1/2-x,1/2-y,1/2+z
1/2-y,1/2+x,1/2-z
1/2+y,1/2+x,-z
1/2-y,1/2-x,-z
1/2-x,1/2+y,z
1/2+x,1/2-y,z
loop_
_atom_site_type_symbol
_atom_site_label
_atom_site_fract_x
_atom_site_fract_y
_atom_site_fract_z
Si Si1 0.819476 0.128915 0.002888
Si Si2 0.218274 0.203662 0.337658
Si Si3 0.615504 0.813204 0.183719
Si Si4 0.959530 0.629345 0.429521
Si Si5 0.279086 0.461531 0.455679
Si Si6 0.676662 0.115227 0.130505
O O1 0.817022 0.188991 0.926878
O O2 0.817737 0.044413 0.964015
O O3 0.897285 0.154170 0.047208
O O4 0.746402 0.129589 0.065323
O O5 0.180074 0.180074 0.250000
O O6 0.224095 0.297702 0.327195
O O7 0.297124 0.153325 0.347742
O O8 0.623058 0.901311 0.148800
O O9 0.554574 0.771734 0.124709
O O10 0.587738 0.802008 0.277440
O O11 0.928411 0.571590 0.500000
O O12 0.954018 0.715753 0.469717
O O13 0.050026 0.620457 0.406133
#
# Coordination Sequence:
#
# PCOD9559640 Si02
#       6
#    16  16  16  16  16  16
#     4  11  21  38  58  89 119 154 201 248 307 367
#     4  10  20  35  61  88 112 151 207 257 294 354
#     4  10  19  36  60  87 121 157 203 249 304 360
#     4   9  19  37  60  86 121 162 197 245 312 364
#     4  10  21  35  60  85 119 162 194 251 303 363
#     4  10  21  33  62  92 116 155 205 248 303 370
#
# _framework density 19.960993999999999
#
# number of rings (size 3 to 8) (size 9 to 14) (size 15 to 20)
#    0.000    2.000    3.333    0.500    0.000    3.000 
#    0.000    1.667    0.000   27.500    0.000    0.000 
#    0.000    0.000    0.000    0.000    0.000    0.000 
#
# Total GULP energy -267232.730618 kJ/mol
# GULP energy per Si atom -5567.348555 kJ/mol
# Density = 1.991556 g / cm^3
# Si number density = 19.960994 Si / 1000 Ang^3
#
#
#
# Elastic Constant Matrix: (Units=GPa)
#
#
# Indices 1 2 3 4 5 6 
#
# 1 59.6736 28.4214 18.4225 0.0000 0.0000 0.0000
# 2 28.4214 59.6735 18.4220 0.0000 0.0000 0.0000
# 3 18.4225 18.4220 115.0587 0.0000 0.0000 0.0000
# 4 0.0000 0.0000 0.0000 14.1864 0.0000 0.0000
# 5 0.0000 0.0000 0.0000 0.0000 14.1865 0.0000
# 6 0.0000 0.0000 0.0000 0.0000 0.0000 13.8212
#
#
#
# Elastic Compliance Matrix: (Units=1/GPa)
#
#
# Indices 1 2 3 4 5 6 
#
# 1 0.022082 -0.009916 -0.001948 0.000000 0.000000 0.000000
# 2 -0.009916 0.022082 -0.001948 0.000000 0.000000 0.000000
# 3 -0.001948 -0.001948 0.009315 0.000000 0.000000 0.000000
# 4 0.000000 0.000000 0.000000 0.070490 0.000000 0.000000
# 5 0.000000 0.000000 0.000000 0.000000 0.070489 0.000000
# 6 0.000000 0.000000 0.000000 0.000000 0.000000 0.072353
#
#
# Mechanical properties :
#
#
# Convention : Reuss Voigt Hill
#
# Bulk Modulus (GPa) = 38.67657 40.54860 39.61258
# Shear Modulus (GPa) = 16.49879 19.71483 18.10681
#
# Velocity S-wave (km/s) = 2.87810 3.14613 3.01509
# Velocity P-wave (km/s) = 5.51931 5.79271 5.65766
#
# Compressibility (1/GPa) = 0.02585545
#
# Stress axis : x y z
#
# Youngs Moduli (GPa) = 45.28589 45.28590 107.35381
#
# Poissons Ratio (x) = 0.44905 0.20912
# Poissons Ratio (y) = 0.44905 0.20911
# Poissons Ratio (z) = 0.08822 0.08821
#
# Static dielectric constant tensor:
#      x y z
#    x 1.732820 0.000000 0.000000 
#    y 0.000000 1.732820 0.000000 
#    z 0.000000 0.000000 1.796690 
# 
# From -- ./inp_files/4467.got.cif
#   From: 2010.05.17/outbox.cif.g08.bks.cpg/sg120_3_cif.got.tgz:4467.got - 2010.05.20 11:28:13.
