data_PCOD9559367
_publ_section_title
;
Structure prediction by ZEFSAII (Michael W. Deem and Ramdas Pophale) SiO2 
 PCOD9559367
Probable space group: I -4 M 2
;
_chemical_formula_sum "Si O2"
_cell_formula_units_Z 48
_cell_length_a 21.801565
_cell_length_b 21.801565
_cell_length_c 4.916238
_cell_angle_alpha 90.000000
_cell_angle_beta 90.000000
_cell_angle_gamma 90.000000
_cell_volume 2336.728414
_symmetry_space_group_name_H-M "I -4 M 2"
_symmetry_group_IT_number 119
_symmetry_cell_setting 'tetragonal'
loop_
_space_group_symop_operation_xyz
x,y,z
y,-x,-z
-x,-y,z
-y,x,-z
y,x,-z
-y,-x,-z
-x,y,z
x,-y,z
1/2+x,1/2+y,1/2+z
1/2+y,1/2-x,1/2-z
1/2-x,1/2-y,1/2+z
1/2-y,1/2+x,1/2-z
1/2+y,1/2+x,1/2-z
1/2-y,1/2-x,1/2-z
1/2-x,1/2+y,1/2+z
1/2+x,1/2-y,1/2+z
loop_
_atom_site_type_symbol
_atom_site_label
_atom_site_fract_x
_atom_site_fract_y
_atom_site_fract_z
Si Si1 0.930687 0.069314 0.500000
Si Si2 0.127279 0.127279 0.000000
Si Si3 0.172681 0.570553 0.267992
Si Si4 0.070949 0.756357 0.723523
O O1 0.885306 0.080567 0.751285
O O2 0.000000 0.076211 0.603957
O O3 0.191536 0.113650 0.147301
O O4 0.156983 0.500000 0.196521
O O5 0.115998 0.615998 0.250000
O O6 0.199621 0.571644 0.569752
O O7 0.228439 0.589154 0.066469
O O8 0.000000 0.778952 0.708405
#
# Coordination Sequence:
#
# PCOD9559367 Si02
#       4
#     8   8  16  16
#     4  11  22  34  52  81 114 149 200 265 312 345
#     4  12  22  37  58  81 114 163 206 241 296 362
#     4  10  21  39  62  88 118 150 189 241 300 360
#     4  10  21  37  58  85 117 154 196 242 291 349
#
# _framework density 20.541537999999999
#
# number of rings (size 3 to 8) (size 9 to 14) (size 15 to 20)
#    0.000    1.500    0.000    6.000    0.000    4.333 
#    0.000    3.333    0.000    6.000    0.000    0.000 
#    0.000    0.000    0.000    0.000    0.000    0.000 
#
# Total GULP energy -134094.153600 kJ/mol
# GULP energy per Si atom -5587.256400 kJ/mol
# Density = 2.049478 g / cm^3
# Si number density = 20.541538 Si / 1000 Ang^3
#
#
#
# Elastic Constant Matrix: (Units=GPa)
#
#
# Indices 1 2 3 4 5 6 
#
# 1 67.3911 39.3822 -14.8437 0.0000 0.0000 0.0000
# 2 39.3822 67.3904 -14.8436 0.0000 0.0000 0.0000
# 3 -14.8437 -14.8436 66.6850 0.0000 0.0000 0.0000
# 4 0.0000 0.0000 0.0000 27.6247 0.0000 0.0000
# 5 0.0000 0.0000 0.0000 0.0000 27.6248 0.0000
# 6 0.0000 0.0000 0.0000 0.0000 0.0000 38.0537
#
#
#
# Elastic Compliance Matrix: (Units=1/GPa)
#
#
# Indices 1 2 3 4 5 6 
#
# 1 0.022843 -0.012860 0.002222 0.000000 0.000000 0.000000
# 2 -0.012860 0.022844 0.002222 0.000000 0.000000 0.000000
# 3 0.002222 0.002222 0.015985 0.000000 0.000000 0.000000
# 4 0.000000 0.000000 0.000000 0.036199 0.000000 0.000000
# 5 0.000000 0.000000 0.000000 0.000000 0.036199 0.000000
# 6 0.000000 0.000000 0.000000 0.000000 0.000000 0.026279
#
#
# Mechanical properties :
#
#
# Convention : Reuss Voigt Hill
#
# Bulk Modulus (GPa) = 22.30081 24.53958 23.42020
# Shear Modulus (GPa) = 26.02439 31.44540 28.73489
#
# Velocity S-wave (km/s) = 3.56324 3.91681 3.74420
# Velocity P-wave (km/s) = 5.27341 5.69452 5.48800
#
# Compressibility (1/GPa) = 0.04484142
#
# Stress axis : x y z
#
# Youngs Moduli (GPa) = 43.77644 43.77600 62.55783
#
# Poissons Ratio (x) = 0.56295 -0.13902
# Poissons Ratio (y) = 0.56296 -0.13902
# Poissons Ratio (z) = -0.09728 -0.09728
#
# Static dielectric constant tensor:
#      x y z
#    x 1.740000 0.000000 0.000000 
#    y 0.000000 1.740000 0.000000 
#    z 0.000000 0.000000 1.714670 
# 
# From -- ./inp_files/518.got.cif
#   From: 2010.05.17/outbox.cif.g08.bks.cpg/sg119_1_cif.got.tgz:518.got - 2010.05.20 11:21:29.
