data_PCOD9559660
_publ_section_title
;
Structure prediction by ZEFSAII (Michael W. Deem and Ramdas Pophale) SiO2 
 PCOD9559660
Probable space group: I -4 C 2
;
_chemical_formula_sum "Si O2"
_cell_formula_units_Z 128
_cell_length_a 20.262678
_cell_length_b 20.262678
_cell_length_c 17.807503
_cell_angle_alpha 90.000000
_cell_angle_beta 90.000000
_cell_angle_gamma 90.000000
_cell_volume 7311.335484
_symmetry_space_group_name_H-M "I -4 C 2"
_symmetry_group_IT_number 120
_symmetry_cell_setting 'tetragonal'
loop_
_space_group_symop_operation_xyz
x,y,z
y,-x,-z
-x,-y,z
-y,x,-z
y,x,1/2-z
-y,-x,1/2-z
-x,y,1/2+z
x,-y,1/2+z
1/2+x,1/2+y,1/2+z
1/2+y,1/2-x,1/2-z
1/2-x,1/2-y,1/2+z
1/2-y,1/2+x,1/2-z
1/2+y,1/2+x,-z
1/2-y,1/2-x,-z
1/2-x,1/2+y,z
1/2+x,1/2-y,z
loop_
_atom_site_type_symbol
_atom_site_label
_atom_site_fract_x
_atom_site_fract_y
_atom_site_fract_z
Si Si1 0.239780 0.872789 0.666564
Si Si2 0.416836 0.305761 0.166362
Si Si3 0.694238 0.583164 0.166362
Si Si4 0.851582 0.036457 0.579707
Si Si5 0.963543 0.148418 0.579707
Si Si6 0.829625 0.284011 0.078158
Si Si7 0.829625 0.715990 0.921842
Si Si8 0.872789 0.239780 0.666564
O O1 0.213103 0.921077 0.601823
O O2 0.304842 0.834102 0.642149
O O3 0.182999 0.817001 0.670417
O O4 0.244800 0.902690 0.750000
O O5 0.354686 0.354686 0.169161
O O6 0.426214 0.278031 0.250000
O O7 0.478904 0.349289 0.141294
O O8 0.396962 0.250789 0.104648
O O9 0.650711 0.521096 0.141293
O O10 0.749210 0.603038 0.104647
O O11 0.914103 0.085897 0.582686
O O12 0.849642 0.000000 0.500000
O O13 0.921076 0.213104 0.601822
O O14 0.774953 0.225047 0.072569
O O15 0.823054 0.323054 0.000000
O O16 0.804842 0.665899 0.857851
O O17 0.823054 0.676947 0.000000
#
# Coordination Sequence:
#
# PCOD9559660 Si02
#       8
#    16  16  16  16  16  16  16  16
#     4   9  17  30  48  67  88 118 157 201 249 298
#     4  10  20  32  46  66  93 124 159 201 247 294
#     4  10  20  32  46  66  93 124 159 201 247 294
#     4  11  22  34  47  65  92 129 172 210 242 283
#     4  11  22  34  47  65  92 129 172 210 242 283
#     4   9  16  28  47  69  91 115 148 194 249 301
#     4   9  16  28  47  69  91 115 148 194 249 301
#     4   9  17  30  48  67  88 118 157 201 249 298
#
# _framework density 17.507062000000001
#
# number of rings (size 3 to 8) (size 9 to 14) (size 15 to 20)
#    0.000    2.250    0.000    3.750    0.000   10.250 
#    0.000    1.250    0.000    0.000    0.000    0.000 
#    0.000    1.000    0.000   10.000    0.000    7.750 
#
# Total GULP energy -356298.943941 kJ/mol
# GULP energy per Si atom -5567.170999 kJ/mol
# Density = 1.746722 g / cm^3
# Si number density = 17.507062 Si / 1000 Ang^3
#
#
#
# Elastic Constant Matrix: (Units=GPa)
#
#
# Indices 1 2 3 4 5 6 
#
# 1 31.9099 33.1672 23.9358 0.0000 0.0000 0.0000
# 2 33.1672 31.9099 23.9356 0.0000 0.0000 0.0000
# 3 23.9358 23.9356 82.7042 0.0000 0.0000 0.0000
# 4 0.0000 0.0000 0.0000 12.2472 0.0000 0.0000
# 5 0.0000 0.0000 0.0000 0.0000 12.2472 0.0000
# 6 0.0000 0.0000 0.0000 0.0000 0.0000 28.0326
#
#
#
# Elastic Compliance Matrix: (Units=1/GPa)
#
#
# Indices 1 2 3 4 5 6 
#
# 1 -0.387907 0.407429 -0.005649 0.000000 0.000000 0.000000
# 2 0.407429 -0.387905 -0.005651 0.000000 0.000000 0.000000
# 3 -0.005649 -0.005651 0.015362 0.000000 0.000000 0.000000
# 4 0.000000 0.000000 0.000000 0.081651 0.000000 0.000000
# 5 0.000000 0.000000 0.000000 0.000000 0.081651 0.000000
# 6 0.000000 0.000000 0.000000 0.000000 0.000000 0.035673
#
#
# Mechanical properties :
#
#
# Convention : Reuss Voigt Hill
#
# Bulk Modulus (GPa) = 31.44001 34.28901 32.86451
# Shear Modulus (GPa) = -3.72265 14.87110 5.57422
#
# Velocity S-wave (km/s) = -1.45979 2.91767 1.78631
# Velocity P-wave (km/s) = 3.89309 5.56585 4.80286
#
# Compressibility (1/GPa) = 0.03180661
#
# Stress axis : x y z
#
# Youngs Moduli (GPa) = -2.57794 -2.57795 65.09680
#
# Poissons Ratio (x) = 1.05033 0.36774
# Poissons Ratio (y) = 1.05033 0.36787
# Poissons Ratio (z) = -0.01456 -0.01457
#
# Static dielectric constant tensor:
#      x y z
#    x 1.612600 0.000000 0.000000 
#    y 0.000000 1.612600 0.000000 
#    z 0.000000 0.000000 1.660250 
# 
# From -- ./inp_files/4684.got.cif
#   From: 2010.05.17/outbox.cif.g08.bks.cpg/sg120_3_cif.got.tgz:4684.got - 2010.05.20 11:28:13.
