data_PCOD9559414
_publ_section_title
;
Structure prediction by ZEFSAII (Michael W. Deem and Ramdas Pophale) SiO2 
 PCOD9559414
Probable space group: I -4 M 2
;
_chemical_formula_sum "Si O2"
_cell_formula_units_Z 96
_cell_length_a 15.230339
_cell_length_b 15.230339
_cell_length_c 21.184429
_cell_angle_alpha 90.000000
_cell_angle_beta 90.000000
_cell_angle_gamma 90.000000
_cell_volume 4914.008493
_symmetry_space_group_name_H-M "I -4 M 2"
_symmetry_group_IT_number 119
_symmetry_cell_setting 'tetragonal'
loop_
_space_group_symop_operation_xyz
x,y,z
y,-x,-z
-x,-y,z
-y,x,-z
y,x,-z
-y,-x,-z
-x,y,z
x,-y,z
1/2+x,1/2+y,1/2+z
1/2+y,1/2-x,1/2-z
1/2-x,1/2-y,1/2+z
1/2-y,1/2+x,1/2-z
1/2+y,1/2+x,1/2-z
1/2-y,1/2-x,1/2-z
1/2-x,1/2+y,1/2+z
1/2+x,1/2-y,1/2+z
loop_
_atom_site_type_symbol
_atom_site_label
_atom_site_fract_x
_atom_site_fract_y
_atom_site_fract_z
Si Si1 0.648820 0.773818 0.644080
Si Si2 0.226888 0.854196 0.322849
Si Si3 0.904433 0.595568 0.250000
Si Si4 0.899353 0.897511 0.795720
Si Si5 0.100698 0.399303 0.750000
Si Si6 0.899046 0.397755 0.027353
Si Si7 0.277747 0.596760 0.961689
O O1 0.751496 0.776914 0.660738
O O2 0.602396 0.827443 0.700040
O O3 0.620208 0.672759 0.650176
O O4 0.625909 0.827140 0.581035
O O5 0.163584 0.875919 0.264212
O O6 0.324924 0.881373 0.302184
O O7 0.201356 0.899939 0.387928
O O8 0.899019 0.500000 0.218025
O O9 0.000000 0.879169 0.814615
O O10 0.893310 0.000000 0.777738
O O11 0.110861 0.500000 0.727655
O O12 0.892377 0.500000 0.050134
O O13 0.000000 0.384493 0.007814
O O14 0.826076 0.388635 0.973025
O O15 0.299232 0.500000 0.987157
O O16 0.331206 0.668795 0.000000
#
# Coordination Sequence:
#
# PCOD9559414 Si02
#       7
#    16  16   8  16   8  16  16
#     4  12  21  36  62  87 122 160 192 240 298 359
#     4  12  23  40  62  88 121 159 199 251 299 348
#     4  11  21  32  52  86 121 151 188 236 294 357
#     4  11  23  38  58  87 124 163 199 238 291 353
#     4  11  23  40  64  90 119 157 200 252 310 357
#     4  10  22  41  65  92 122 155 195 248 304 360
#     4  11  24  42  63  87 121 159 206 250 295 355
#
# _framework density 19.535986999999999
#
# number of rings (size 3 to 8) (size 9 to 14) (size 15 to 20)
#    0.000    0.833    5.000    3.500    0.000    3.500 
#    0.000    1.667    0.000    0.000    0.000    0.000 
#    0.000    0.000    0.000    0.000    0.000    0.000 
#
# Total GULP energy -268026.703316 kJ/mol
# GULP energy per Si atom -5583.889652 kJ/mol
# Density = 1.949152 g / cm^3
# Si number density = 19.535987 Si / 1000 Ang^3
#
#
#
# Elastic Constant Matrix: (Units=GPa)
#
#
# Indices 1 2 3 4 5 6 
#
# 1 123.8395 37.4659 4.2309 0.0000 0.0000 0.0000
# 2 37.4659 123.8370 4.2296 0.0000 0.0000 0.0000
# 3 4.2309 4.2296 37.3704 0.0000 0.0000 0.0000
# 4 0.0000 0.0000 0.0000 16.5773 0.0000 0.0000
# 5 0.0000 0.0000 0.0000 0.0000 16.5770 0.0000
# 6 0.0000 0.0000 0.0000 0.0000 0.0000 31.0752
#
#
#
# Elastic Compliance Matrix: (Units=1/GPa)
#
#
# Indices 1 2 3 4 5 6 
#
# 1 0.008907 -0.002671 -0.000706 0.000000 0.000000 0.000000
# 2 -0.002671 0.008907 -0.000706 0.000000 0.000000 0.000000
# 3 -0.000706 -0.000706 0.026919 0.000000 0.000000 0.000000
# 4 0.000000 0.000000 0.000000 0.060324 0.000000 0.000000
# 5 0.000000 0.000000 0.000000 0.000000 0.060325 0.000000
# 6 0.000000 0.000000 0.000000 0.000000 0.000000 0.032180
#
#
# Mechanical properties :
#
#
# Convention : Reuss Voigt Hill
#
# Bulk Modulus (GPa) = 27.34620 41.87773 34.61196
# Shear Modulus (GPa) = 22.94463 28.78726 25.86594
#
# Velocity S-wave (km/s) = 3.43079 3.84285 3.64265
# Velocity P-wave (km/s) = 5.45179 6.41660 5.95377
#
# Compressibility (1/GPa) = 0.03656815
#
# Stress axis : x y z
#
# Youngs Moduli (GPa) = 112.27050 112.26852 37.14850
#
# Poissons Ratio (x) = 0.29983 0.02623
# Poissons Ratio (y) = 0.29983 0.02622
# Poissons Ratio (z) = 0.07928 0.07924
#
# Static dielectric constant tensor:
#      x y z
#    x 1.719240 0.000000 0.000000 
#    y 0.000000 1.719230 0.000000 
#    z 0.000000 0.000000 1.646360 
# 
# From -- ./inp_files/7848.got.cif
#   From: 2010.05.17/outbox.cif.g08.bks.cpg/sg119_4_cif.got.tgz:7848.got - 2010.05.20 11:21:29.
