data_PCOD9559553
_publ_section_title
;
Structure prediction by ZEFSAII (Michael W. Deem and Ramdas Pophale) SiO2 
 PCOD9559553
Probable space group: I -4 C 2
;
_chemical_formula_sum "Si O2"
_cell_formula_units_Z 104
_cell_length_a 25.961612
_cell_length_b 25.961612
_cell_length_c 9.611015
_cell_angle_alpha 90.000000
_cell_angle_beta 90.000000
_cell_angle_gamma 90.000000
_cell_volume 6477.875026
_symmetry_space_group_name_H-M "I -4 C 2"
_symmetry_group_IT_number 120
_symmetry_cell_setting 'tetragonal'
loop_
_space_group_symop_operation_xyz
x,y,z
y,-x,-z
-x,-y,z
-y,x,-z
y,x,1/2-z
-y,-x,1/2-z
-x,y,1/2+z
x,-y,1/2+z
1/2+x,1/2+y,1/2+z
1/2+y,1/2-x,1/2-z
1/2-x,1/2-y,1/2+z
1/2-y,1/2+x,1/2-z
1/2+y,1/2+x,-z
1/2-y,1/2-x,-z
1/2-x,1/2+y,z
1/2+x,1/2-y,z
loop_
_atom_site_type_symbol
_atom_site_label
_atom_site_fract_x
_atom_site_fract_y
_atom_site_fract_z
Si Si1 0.778906 0.513552 0.436350
Si Si2 0.110466 0.242946 0.445301
Si Si3 0.281027 0.293848 0.916669
Si Si4 0.600749 0.771208 0.624566
Si Si5 0.859363 0.640638 0.500000
Si Si6 0.489581 0.147907 0.318400
Si Si7 0.092505 0.387886 0.208768
O O1 0.737239 0.556746 0.474189
O O2 0.760201 0.454547 0.443026
O O3 0.825165 0.516228 0.549612
O O4 0.805107 0.522656 0.286862
O O5 0.159007 0.205526 0.461245
O O6 0.098564 0.249502 0.281880
O O7 0.130952 0.298674 0.493803
O O8 0.281231 0.281231 0.750000
O O9 0.253493 0.348575 0.940881
O O10 0.249413 0.250588 0.000000
O O11 0.605449 0.833323 0.636391
O O12 0.881796 0.615403 0.361368
O O13 0.439079 0.115868 0.358106
O O14 0.531401 0.113209 0.237348
#
# Coordination Sequence:
#
# PCOD9559553 Si02
#       7
#    16  16  16  16   8  16  16
#     4  11  19  34  50  71  89 130 173 205 248 302
#     4  10  17  33  53  70  92 132 164 195 249 305
#     4  10  21  34  51  76 108 131 161 208 261 312
#     4   9  21  33  47  74  99 124 165 207 249 297
#     4  10  14  30  48  61  88 114 166 192 230 307
#     4  11  21  30  49  65  91 126 170 217 258 291
#     4  10  19  31  45  67  90 126 164 215 252 288
#
# _framework density 16.054648
#
# number of rings (size 3 to 8) (size 9 to 14) (size 15 to 20)
#    0.000    1.846    6.923    0.000    2.154    2.154 
#    0.000    0.000    0.000    4.615    0.000    0.000 
#    0.000    0.615    0.000    5.538    0.000    0.000 
#
# Total GULP energy -289940.745198 kJ/mol
# GULP energy per Si atom -5575.783561 kJ/mol
# Density = 1.601811 g / cm^3
# Si number density = 16.054648 Si / 1000 Ang^3
#
#
#
# Elastic Constant Matrix: (Units=GPa)
#
#
# Indices 1 2 3 4 5 6 
#
# 1 81.4995 51.8653 11.6270 0.0000 0.0000 0.0000
# 2 51.8653 81.5001 11.6295 0.0000 0.0000 0.0000
# 3 11.6270 11.6295 37.2767 0.0000 0.0000 0.0000
# 4 0.0000 0.0000 0.0000 18.4963 0.0000 0.0000
# 5 0.0000 0.0000 0.0000 0.0000 18.4960 0.0000
# 6 0.0000 0.0000 0.0000 0.0000 0.0000 27.1499
#
#
#
# Elastic Compliance Matrix: (Units=1/GPa)
#
#
# Indices 1 2 3 4 5 6 
#
# 1 0.020837 -0.012907 -0.002472 0.000000 0.000000 0.000000
# 2 -0.012907 0.020837 -0.002475 0.000000 0.000000 0.000000
# 3 -0.002472 -0.002475 0.028370 0.000000 0.000000 0.000000
# 4 0.000000 0.000000 0.000000 0.054065 0.000000 0.000000
# 5 0.000000 0.000000 0.000000 0.000000 0.054066 0.000000
# 6 0.000000 0.000000 0.000000 0.000000 0.000000 0.036833
#
#
# Mechanical properties :
#
#
# Convention : Reuss Voigt Hill
#
# Bulk Modulus (GPa) = 29.12526 38.94664 34.03595
# Shear Modulus (GPa) = 19.07227 21.17208 20.12217
#
# Velocity S-wave (km/s) = 3.45042 3.63540 3.54412
# Velocity P-wave (km/s) = 5.83563 6.47557 6.16391
#
# Compressibility (1/GPa) = 0.03433446
#
# Stress axis : x y z
#
# Youngs Moduli (GPa) = 47.99189 47.99129 35.24895
#
# Poissons Ratio (x) = 0.61944 0.08715
# Poissons Ratio (y) = 0.61945 0.08723
# Poissons Ratio (z) = 0.11866 0.11877
#
# Static dielectric constant tensor:
#      x y z
#    x 1.549190 0.000000 0.000000 
#    y 0.000000 1.549190 0.000000 
#    z 0.000000 0.000000 1.584290 
# 
# From -- ./inp_files/1687.got.cif
#   From: 2010.05.17/outbox.cif.g08.bks.cpg/sg120_1_cif.got.tgz:1687.got - 2010.05.20 11:28:13.
