data_PCOD9559237
_publ_section_title
;
Structure prediction by ZEFSAII (Michael W. Deem and Ramdas Pophale) SiO2 
 PCOD9559237
Probable space group: I -4 M 2
;
_chemical_formula_sum "Si O2"
_cell_formula_units_Z 96
_cell_length_a 14.235446
_cell_length_b 14.235446
_cell_length_c 25.081106
_cell_angle_alpha 90.000000
_cell_angle_beta 90.000000
_cell_angle_gamma 90.000000
_cell_volume 5082.634033
_symmetry_space_group_name_H-M "I -4 M 2"
_symmetry_group_IT_number 119
_symmetry_cell_setting 'tetragonal'
loop_
_space_group_symop_operation_xyz
x,y,z
y,-x,-z
-x,-y,z
-y,x,-z
y,x,-z
-y,-x,-z
-x,y,z
x,-y,z
1/2+x,1/2+y,1/2+z
1/2+y,1/2-x,1/2-z
1/2-x,1/2-y,1/2+z
1/2-y,1/2+x,1/2-z
1/2+y,1/2+x,1/2-z
1/2-y,1/2-x,1/2-z
1/2-x,1/2+y,1/2+z
1/2+x,1/2-y,1/2+z
loop_
_atom_site_type_symbol
_atom_site_label
_atom_site_fract_x
_atom_site_fract_y
_atom_site_fract_z
Si Si1 0.103910 0.389940 0.010148
Si Si2 0.109374 0.670127 0.609132
Si Si3 0.109240 0.890024 0.864482
Si Si4 0.612592 0.110488 0.811264
Si Si5 0.713374 0.219825 0.593962
Si Si6 0.894480 0.721813 0.789922
O O1 0.110152 0.500000 0.024353
O O2 0.115297 0.383412 0.946725
O O3 0.000000 0.356062 0.026432
O O4 0.183667 0.334431 0.041202
O O5 0.176885 0.760095 0.601636
O O6 0.156070 0.613705 0.657679
O O7 0.000000 0.690150 0.619091
O O8 0.179942 0.840436 0.905228
O O9 0.120425 0.827761 0.810785
O O10 0.000000 0.880604 0.880331
O O11 0.129958 0.000000 0.857423
O O12 0.500000 0.119304 0.817030
O O13 0.635721 0.135721 0.750000
O O14 0.664441 0.171894 0.855256
O O15 0.635540 0.000000 0.819168
O O16 0.816793 0.683208 0.750000
O O17 0.000000 0.713488 0.767557
#
# Coordination Sequence:
#
# PCOD9559237 Si02
#       6
#    16  16  16  16  16  16
#     4  10  20  35  58  85 108 132 169 221 277 324
#     4  10  22  37  51  73 109 147 179 219 270 316
#     4   9  19  35  53  77 112 147 174 207 260 325
#     4   9  18  33  55  85 116 140 168 217 278 327
#     4  11  20  33  56  82 106 140 182 219 257 314
#     4  10  20  34  56  82 104 135 182 230 272 314
#
# _framework density 18.887844000000001
#
# number of rings (size 3 to 8) (size 9 to 14) (size 15 to 20)
#    0.000    2.167    0.000    4.000    0.000    6.500 
#    0.000    0.000    0.000    7.000    0.000   14.000 
#    0.000    0.000    0.000    0.000    0.000    0.000 
#
# Total GULP energy -267924.430632 kJ/mol
# GULP energy per Si atom -5581.758971 kJ/mol
# Density = 1.884485 g / cm^3
# Si number density = 18.887844 Si / 1000 Ang^3
#
#
#
# Elastic Constant Matrix: (Units=GPa)
#
#
# Indices 1 2 3 4 5 6 
#
# 1 87.9539 22.7345 17.4821 0.0000 0.0000 0.0000
# 2 22.7345 87.9536 17.4818 0.0000 0.0000 0.0000
# 3 17.4821 17.4818 47.4113 0.0000 0.0000 0.0000
# 4 0.0000 0.0000 0.0000 25.3907 0.0000 0.0000
# 5 0.0000 0.0000 0.0000 0.0000 25.3916 0.0000
# 6 0.0000 0.0000 0.0000 0.0000 0.0000 20.7585
#
#
#
# Elastic Compliance Matrix: (Units=1/GPa)
#
#
# Indices 1 2 3 4 5 6 
#
# 1 0.012779 -0.002554 -0.003770 0.000000 0.000000 0.000000
# 2 -0.002554 0.012779 -0.003770 0.000000 0.000000 0.000000
# 3 -0.003770 -0.003770 0.023873 0.000000 0.000000 0.000000
# 4 0.000000 0.000000 0.000000 0.039384 0.000000 0.000000
# 5 0.000000 0.000000 0.000000 0.000000 0.039383 0.000000
# 6 0.000000 0.000000 0.000000 0.000000 0.000000 0.048173
#
#
# Mechanical properties :
#
#
# Convention : Reuss Voigt Hill
#
# Bulk Modulus (GPa) = 34.19779 37.63508 35.91644
# Shear Modulus (GPa) = 24.23564 25.34952 24.79258
#
# Velocity S-wave (km/s) = 3.58597 3.66745 3.62694
# Velocity P-wave (km/s) = 5.94059 6.15650 6.04951
#
# Compressibility (1/GPa) = 0.02924166
#
# Stress axis : x y z
#
# Youngs Moduli (GPa) = 78.25264 78.25260 41.88918
#
# Poissons Ratio (x) = 0.19984 0.15794
# Poissons Ratio (y) = 0.19984 0.15794
# Poissons Ratio (z) = 0.29505 0.29504
#
# Static dielectric constant tensor:
#      x y z
#    x 1.662590 0.000000 0.000000 
#    y 0.000000 1.662590 0.000000 
#    z 0.000000 0.000000 1.656800 
# 
# From -- ./inp_files/7790.got.cif
#   From: 2010.05.17/outbox.cif.g08.bks.cpg/sg119_4_cif.got.tgz:7790.got - 2010.05.20 11:21:29.
