data_PCOD9559459
_publ_section_title
;
Structure prediction by ZEFSAII (Michael W. Deem and Ramdas Pophale) SiO2 
 PCOD9559459
Probable space group: I -4 M 2
;
_chemical_formula_sum "Si O2"
_cell_formula_units_Z 72
_cell_length_a 13.813986
_cell_length_b 13.813986
_cell_length_c 22.030222
_cell_angle_alpha 90.000000
_cell_angle_beta 90.000000
_cell_angle_gamma 90.000000
_cell_volume 4203.943752
_symmetry_space_group_name_H-M "I -4 M 2"
_symmetry_group_IT_number 119
_symmetry_cell_setting 'tetragonal'
loop_
_space_group_symop_operation_xyz
x,y,z
y,-x,-z
-x,-y,z
-y,x,-z
y,x,-z
-y,-x,-z
-x,y,z
x,-y,z
1/2+x,1/2+y,1/2+z
1/2+y,1/2-x,1/2-z
1/2-x,1/2-y,1/2+z
1/2-y,1/2+x,1/2-z
1/2+y,1/2+x,1/2-z
1/2-y,1/2-x,1/2-z
1/2-x,1/2+y,1/2+z
1/2+x,1/2-y,1/2+z
loop_
_atom_site_type_symbol
_atom_site_label
_atom_site_fract_x
_atom_site_fract_y
_atom_site_fract_z
Si Si1 0.203876 0.696056 0.373452
Si Si2 0.384443 0.105941 0.993214
Si Si3 0.884367 0.615634 0.250000
Si Si4 0.696509 0.387558 0.939421
Si Si5 0.614041 0.384365 0.429064
O O1 0.157140 0.633008 0.427814
O O2 0.164276 0.660566 0.309695
O O3 0.175730 0.806950 0.388865
O O4 0.317450 0.674469 0.383866
O O5 0.500000 0.102665 0.987391
O O6 0.365291 0.193725 0.038709
O O7 0.349292 0.000000 0.012766
O O8 0.868144 0.500000 0.248651
O O9 0.687680 0.500000 0.921951
O O10 0.633344 0.366657 0.000000
O O11 0.638269 0.361732 0.500000
O O12 0.500000 0.367051 0.420486
O O13 0.630134 0.500000 0.421442
#
# Coordination Sequence:
#
# PCOD9559459 Si02
#       5
#    16  16   8  16  16
#     4  11  20  32  51  71  99 136 170 204 244 292
#     4   9  16  28  50  79 105 127 157 201 251 299
#     4  11  24  40  56  74  96 123 160 206 250 293
#     4   9  19  33  50  75 103 131 164 204 251 300
#     4   9  17  29  48  77 109 136 163 200 250 303
#
# _framework density 17.126774000000001
#
# number of rings (size 3 to 8) (size 9 to 14) (size 15 to 20)
#    0.000    2.333    0.000    5.333    0.000    5.556 
#    0.000    1.111    0.000    1.333    0.000    0.000 
#    0.000    1.778    0.000    0.000    0.000    0.000 
#
# Total GULP energy -200864.901723 kJ/mol
# GULP energy per Si atom -5579.580603 kJ/mol
# Density = 1.708779 g / cm^3
# Si number density = 17.126774 Si / 1000 Ang^3
#
#
#
# Elastic Constant Matrix: (Units=GPa)
#
#
# Indices 1 2 3 4 5 6 
#
# 1 93.9607 37.6340 45.3030 0.0000 0.0000 0.0000
# 2 37.6340 93.9582 45.3042 0.0000 0.0000 0.0000
# 3 45.3030 45.3042 84.9894 0.0000 0.0000 0.0000
# 4 0.0000 0.0000 0.0000 18.7021 0.0000 0.0000
# 5 0.0000 0.0000 0.0000 0.0000 18.7018 0.0000
# 6 0.0000 0.0000 0.0000 0.0000 0.0000 22.9352
#
#
#
# Elastic Compliance Matrix: (Units=1/GPa)
#
#
# Indices 1 2 3 4 5 6 
#
# 1 0.014879 -0.002874 -0.006399 0.000000 0.000000 0.000000
# 2 -0.002874 0.014880 -0.006400 0.000000 0.000000 0.000000
# 3 -0.006399 -0.006400 0.018589 0.000000 0.000000 0.000000
# 4 0.000000 0.000000 0.000000 0.053470 0.000000 0.000000
# 5 0.000000 0.000000 0.000000 0.000000 0.053471 0.000000
# 6 0.000000 0.000000 0.000000 0.000000 0.000000 0.043601
#
#
# Mechanical properties :
#
#
# Convention : Reuss Voigt Hill
#
# Bulk Modulus (GPa) = 58.81806 58.82119 58.81963
# Shear Modulus (GPa) = 21.19511 21.71231 21.45371
#
# Velocity S-wave (km/s) = 3.52169 3.56440 3.54311
# Velocity P-wave (km/s) = 7.13819 7.16652 7.15237
#
# Compressibility (1/GPa) = 0.01700158
#
# Stress axis : x y z
#
# Youngs Moduli (GPa) = 67.20737 67.20374 53.79607
#
# Poissons Ratio (x) = 0.19316 0.34425
# Poissons Ratio (y) = 0.19317 0.34429
# Poissons Ratio (z) = 0.43007 0.43010
#
# Static dielectric constant tensor:
#      x y z
#    x 1.634020 0.000000 0.000000 
#    y 0.000000 1.634020 0.000000 
#    z 0.000000 0.000000 1.527430 
# 
# From -- ./inp_files/6385.got.cif
#   From: 2010.05.17/outbox.cif.g08.bks.cpg/sg119_4_cif.got.tgz:6385.got - 2010.05.20 11:21:29.
