data_PCOD9559608
_publ_section_title
;
Structure prediction by ZEFSAII (Michael W. Deem and Ramdas Pophale) SiO2 
 PCOD9559608
Probable space group: I -4 C 2
;
_chemical_formula_sum "Si O2"
_cell_formula_units_Z 88
_cell_length_a 32.180258
_cell_length_b 32.180258
_cell_length_c 5.441717
_cell_angle_alpha 90.000000
_cell_angle_beta 90.000000
_cell_angle_gamma 90.000000
_cell_volume 5635.273459
_symmetry_space_group_name_H-M "I -4 C 2"
_symmetry_group_IT_number 120
_symmetry_cell_setting 'tetragonal'
loop_
_space_group_symop_operation_xyz
x,y,z
y,-x,-z
-x,-y,z
-y,x,-z
y,x,1/2-z
-y,-x,1/2-z
-x,y,1/2+z
x,-y,1/2+z
1/2+x,1/2+y,1/2+z
1/2+y,1/2-x,1/2-z
1/2-x,1/2-y,1/2+z
1/2-y,1/2+x,1/2-z
1/2+y,1/2+x,-z
1/2-y,1/2-x,-z
1/2-x,1/2+y,z
1/2+x,1/2-y,z
loop_
_atom_site_type_symbol
_atom_site_label
_atom_site_fract_x
_atom_site_fract_y
_atom_site_fract_z
Si Si1 0.237544 0.388988 0.540490
Si Si2 0.905048 0.526194 0.546141
Si Si3 0.746522 0.857711 0.543971
Si Si4 0.692582 0.974867 0.045695
Si Si5 0.645529 0.854472 0.000000
Si Si6 0.266897 0.733104 0.750000
Si Si7 0.146723 0.353278 0.000000
O O1 0.258659 0.386348 0.274181
O O2 0.221256 0.435047 0.587378
O O3 0.194930 0.362143 0.509566
O O4 0.261942 0.370762 0.774158
O O5 0.911894 0.495139 0.313127
O O6 0.935908 0.564093 0.500000
O O7 0.856023 0.537669 0.545149
O O8 0.758774 0.812028 0.634140
O O9 0.696276 0.860081 0.509895
O O10 0.699715 0.005331 0.276865
O O11 0.628867 0.872017 0.746649
O O12 0.260852 0.760852 0.500000
#
# Coordination Sequence:
#
# PCOD9559608 Si02
#       7
#    16  16  16  16   8   8   8
#     4  10  19  32  48  63  83 108 142 173 203 258
#     4  10  21  35  49  66  83  99 123 151 195 255
#     4  10  19  30  43  63  84 114 145 168 199 237
#     4  10  21  36  51  68  86 104 130 173 221 260
#     4   8  16  24  41  60  76  98 125 164 188 229
#     4  12  22  30  44  62  96 126 146 180 206 232
#     4   8  14  26  35  54  80  98 136 158 181 223
#
# _framework density 15.615921999999999
#
# number of rings (size 3 to 8) (size 9 to 14) (size 15 to 20)
#    0.000    2.182    0.909    2.727    6.364    1.091 
#    0.000    0.000    0.000    0.000    0.000    0.000 
#    0.000    0.000    0.000    0.000    0.000    0.000 
#
# Total GULP energy -245114.324379 kJ/mol
# GULP energy per Si atom -5570.780100 kJ/mol
# Density = 1.558038 g / cm^3
# Si number density = 15.615922 Si / 1000 Ang^3
#
#
#
# Elastic Constant Matrix: (Units=GPa)
#
#
# Indices 1 2 3 4 5 6 
#
# 1 28.2608 22.7954 17.5258 0.0000 0.0000 0.0000
# 2 22.7954 28.2571 17.5264 0.0000 0.0000 0.0000
# 3 17.5258 17.5264 168.7346 0.0000 0.0000 0.0000
# 4 0.0000 0.0000 0.0000 16.8874 0.0000 0.0000
# 5 0.0000 0.0000 0.0000 0.0000 16.8883 0.0000
# 6 0.0000 0.0000 0.0000 0.0000 0.0000 17.5601
#
#
#
# Elastic Compliance Matrix: (Units=1/GPa)
#
#
# Indices 1 2 3 4 5 6 
#
# 1 0.102055 -0.080971 -0.002190 0.000000 0.000000 0.000000
# 2 -0.080971 0.102070 -0.002192 0.000000 0.000000 0.000000
# 3 -0.002190 -0.002192 0.006382 0.000000 0.000000 0.000000
# 4 0.000000 0.000000 0.000000 0.059216 0.000000 0.000000
# 5 0.000000 0.000000 0.000000 0.000000 0.059212 0.000000
# 6 0.000000 0.000000 0.000000 0.000000 0.000000 0.056947
#
#
# Mechanical properties :
#
#
# Convention : Reuss Voigt Hill
#
# Bulk Modulus (GPa) = 25.12508 37.88307 31.50408
# Shear Modulus (GPa) = 8.77418 21.42747 15.10082
#
# Velocity S-wave (km/s) = 2.37296 3.70828 3.11306
# Velocity P-wave (km/s) = 4.86130 6.53047 5.75670
#
# Compressibility (1/GPa) = 0.03980087
#
# Stress axis : x y z
#
# Youngs Moduli (GPa) = 9.79866 9.79723 156.70175
#
# Poissons Ratio (x) = 0.79329 0.34311
# Poissons Ratio (y) = 0.79341 0.34346
# Poissons Ratio (z) = 0.02145 0.02147
#
# Static dielectric constant tensor:
#      x y z
#    x 1.518310 0.000000 0.000000 
#    y 0.000000 1.518320 0.000000 
#    z 0.000000 0.000000 1.668590 
# 
# From -- ./inp_files/506.got.cif
#   From: 2010.05.17/outbox.cif.g08.bks.cpg/sg120_1_cif.got.tgz:506.got - 2010.05.20 11:28:13.
