data_PCOD9559534
_publ_section_title
;
Structure prediction by ZEFSAII (Michael W. Deem and Ramdas Pophale) SiO2 
 PCOD9559534
Probable space group: I -4 M 2
;
_chemical_formula_sum "Si O2"
_cell_formula_units_Z 28
_cell_length_a 10.773096
_cell_length_b 10.773096
_cell_length_c 9.951943
_cell_angle_alpha 90.000000
_cell_angle_beta 90.000000
_cell_angle_gamma 90.000000
_cell_volume 1155.018498
_symmetry_space_group_name_H-M "I -4 M 2"
_symmetry_group_IT_number 119
_symmetry_cell_setting 'tetragonal'
loop_
_space_group_symop_operation_xyz
x,y,z
y,-x,-z
-x,-y,z
-y,x,-z
y,x,-z
-y,-x,-z
-x,y,z
x,-y,z
1/2+x,1/2+y,1/2+z
1/2+y,1/2-x,1/2-z
1/2-x,1/2-y,1/2+z
1/2-y,1/2+x,1/2-z
1/2+y,1/2+x,1/2-z
1/2-y,1/2-x,1/2-z
1/2-x,1/2+y,1/2+z
1/2+x,1/2-y,1/2+z
loop_
_atom_site_type_symbol
_atom_site_label
_atom_site_fract_x
_atom_site_fract_y
_atom_site_fract_z
Si Si1 0.000000 0.500000 0.250000
Si Si2 0.278391 0.000000 0.548041
Si Si3 0.500000 0.500000 0.000000
Si Si4 0.259197 0.856001 0.119452
O O1 0.000000 0.627766 0.330253
O O2 0.315984 0.882340 0.459687
O O3 0.131097 0.000000 0.578961
O O4 0.265808 0.765808 0.250000
O O5 0.263411 0.000000 0.162957
O O6 0.159391 0.840610 0.000000
#
# Coordination Sequence:
#
# PCOD9559534 Si02
#       4
#     2   8   2  16
#     4  12  28  48  90 124 152 224 294 332 412 512
#     4  12  26  47  80 114 164 210 275 336 411 489
#     4  12  28  52  72 116 166 220 264 340 418 476
#     4  12  27  50  80 116 162 213 274 342 415 494
#
# _framework density 24.242035999999999
#
# number of rings (size 3 to 8) (size 9 to 14) (size 15 to 20)
#    0.000    0.000    8.571    0.000    4.000    0.571 
#    5.143    0.000    0.000    0.000    0.000    0.000 
#    0.000    0.000    0.000    0.000    0.000    0.000 
#
# Total GULP energy -78244.491411 kJ/mol
# GULP energy per Si atom -5588.892244 kJ/mol
# Density = 2.418686 g / cm^3
# Si number density = 24.242036 Si / 1000 Ang^3
#
#
#
# Elastic Constant Matrix: (Units=GPa)
#
#
# Indices 1 2 3 4 5 6 
#
# 1 118.3375 31.8361 44.1832 0.0000 0.0000 0.0000
# 2 31.8361 118.3367 44.1829 0.0000 0.0000 0.0000
# 3 44.1832 44.1829 165.6063 0.0000 0.0000 0.0000
# 4 0.0000 0.0000 0.0000 36.7525 0.0000 0.0000
# 5 0.0000 0.0000 0.0000 0.0000 36.7530 0.0000
# 6 0.0000 0.0000 0.0000 0.0000 0.0000 34.4793
#
#
#
# Elastic Compliance Matrix: (Units=1/GPa)
#
#
# Indices 1 2 3 4 5 6 
#
# 1 0.009730 -0.001831 -0.002107 0.000000 0.000000 0.000000
# 2 -0.001831 0.009730 -0.002107 0.000000 0.000000 0.000000
# 3 -0.002107 -0.002107 0.007163 0.000000 0.000000 0.000000
# 4 0.000000 0.000000 0.000000 0.027209 0.000000 0.000000
# 5 0.000000 0.000000 0.000000 0.000000 0.027209 0.000000
# 6 0.000000 0.000000 0.000000 0.000000 0.000000 0.029003
#
#
# Mechanical properties :
#
#
# Convention : Reuss Voigt Hill
#
# Bulk Modulus (GPa) = 68.81697 71.40941 70.11319
# Shear Modulus (GPa) = 39.37687 40.40219 39.88953
#
# Velocity S-wave (km/s) = 4.03466 4.08685 4.06084
# Velocity P-wave (km/s) = 7.08193 7.19657 7.13948
#
# Compressibility (1/GPa) = 0.01453130
#
# Stress axis : x y z
#
# Youngs Moduli (GPa) = 102.77727 102.77665 139.60773
#
# Poissons Ratio (x) = 0.18816 0.29421
# Poissons Ratio (y) = 0.18816 0.29421
# Poissons Ratio (z) = 0.21660 0.21659
#
# Static dielectric constant tensor:
#      x y z
#    x 2.006030 0.000000 0.000000 
#    y 0.000000 2.006020 0.000000 
#    z 0.000000 0.000000 1.987450 
# 
# From -- ./inp_files/1337.got.cif
#   From: 2010.05.17/outbox.cif.g08.bks.cpg/sg119_1_cif.got.tgz:1337.got - 2010.05.20 11:21:29.
