data_PCOD9559159
_publ_section_title
;
Structure prediction by ZEFSAII (Michael W. Deem and Ramdas Pophale) SiO2 
 PCOD9559159
Probable space group: I -4 M 2
;
_chemical_formula_sum "Si O2"
_cell_formula_units_Z 64
_cell_length_a 13.858059
_cell_length_b 13.858059
_cell_length_c 16.890112
_cell_angle_alpha 90.000000
_cell_angle_beta 90.000000
_cell_angle_gamma 90.000000
_cell_volume 3243.675058
_symmetry_space_group_name_H-M "I -4 M 2"
_symmetry_group_IT_number 119
_symmetry_cell_setting 'tetragonal'
loop_
_space_group_symop_operation_xyz
x,y,z
y,-x,-z
-x,-y,z
-y,x,-z
y,x,-z
-y,-x,-z
-x,y,z
x,-y,z
1/2+x,1/2+y,1/2+z
1/2+y,1/2-x,1/2-z
1/2-x,1/2-y,1/2+z
1/2-y,1/2+x,1/2-z
1/2+y,1/2+x,1/2-z
1/2-y,1/2-x,1/2-z
1/2-x,1/2+y,1/2+z
1/2+x,1/2-y,1/2+z
loop_
_atom_site_type_symbol
_atom_site_label
_atom_site_fract_x
_atom_site_fract_y
_atom_site_fract_z
Si Si1 0.159459 0.892393 0.607723
Si Si2 0.304844 0.611251 0.578306
Si Si3 0.604198 0.802508 0.025473
Si Si4 0.236759 0.111461 0.779097
O O1 0.265012 0.886405 0.565007
O O2 0.106810 0.799342 0.573060
O O3 0.168520 0.886580 0.701502
O O4 0.122060 0.000000 0.587237
O O5 0.367346 0.632654 0.500000
O O6 0.313692 0.500000 0.601941
O O7 0.195154 0.636788 0.553322
O O8 0.338216 0.681973 0.648336
O O9 0.500000 0.849336 0.036518
O O10 0.329996 0.170005 0.750000
O O11 0.257768 0.000000 0.798464
#
# Coordination Sequence:
#
# PCOD9559159 Si02
#       4
#    16  16  16  16
#     4   9  18  35  61  90 121 157 200 252 311 367
#     4  12  25  43  64  90 128 170 214 260 312 376
#     4  10  19  37  64  91 123 160 204 257 315 372
#     4  11  22  40  64  91 124 160 205 256 310 369
#
# _framework density 19.730706999999999
#
# number of rings (size 3 to 8) (size 9 to 14) (size 15 to 20)
#    0.000    1.500    5.000    0.750    0.000    4.000 
#    0.000    5.000    0.000    7.500    0.000    0.000 
#    0.000    0.000    0.000    0.000    0.000    0.000 
#
# Total GULP energy -178557.255506 kJ/mol
# GULP energy per Si atom -5579.914235 kJ/mol
# Density = 1.968580 g / cm^3
# Si number density = 19.730707 Si / 1000 Ang^3
#
#
#
# Elastic Constant Matrix: (Units=GPa)
#
#
# Indices 1 2 3 4 5 6 
#
# 1 108.5582 36.1671 25.8151 0.0000 0.0000 0.0000
# 2 36.1671 108.5618 25.8159 0.0000 0.0000 0.0000
# 3 25.8151 25.8159 104.4192 0.0000 0.0000 0.0000
# 4 0.0000 0.0000 0.0000 11.5501 0.0000 0.0000
# 5 0.0000 0.0000 0.0000 0.0000 11.5507 0.0000
# 6 0.0000 0.0000 0.0000 0.0000 0.0000 2.7961
#
#
#
# Elastic Compliance Matrix: (Units=1/GPa)
#
#
# Indices 1 2 3 4 5 6 
#
# 1 0.010696 -0.003118 -0.001873 0.000000 0.000000 0.000000
# 2 -0.003118 0.010696 -0.001873 0.000000 0.000000 0.000000
# 3 -0.001873 -0.001873 0.010503 0.000000 0.000000 0.000000
# 4 0.000000 0.000000 0.000000 0.086580 0.000000 0.000000
# 5 0.000000 0.000000 0.000000 0.000000 0.086575 0.000000
# 6 0.000000 0.000000 0.000000 0.000000 0.000000 0.357644
#
#
# Mechanical properties :
#
#
# Convention : Reuss Voigt Hill
#
# Bulk Modulus (GPa) = 55.05081 55.23728 55.14404
# Shear Modulus (GPa) = 8.58402 20.76210 14.67306
#
# Velocity S-wave (km/s) = 2.08807 3.24740 2.72998
# Velocity P-wave (km/s) = 5.81163 6.48977 6.16004
#
# Compressibility (1/GPa) = 0.01816504
#
# Stress axis : x y z
#
# Youngs Moduli (GPa) = 93.49392 93.49688 95.20956
#
# Poissons Ratio (x) = 0.29150 0.17837
# Poissons Ratio (y) = 0.29150 0.17837
# Poissons Ratio (z) = 0.17516 0.17517
#
# Static dielectric constant tensor:
#      x y z
#    x 1.703610 0.000000 0.000000 
#    y 0.000000 1.703610 0.000000 
#    z 0.000000 0.000000 1.698570 
# 
# From -- ./inp_files/6249.got.cif
#   From: 2010.05.17/outbox.cif.g08.bks.cpg/sg119_4_cif.got.tgz:6249.got - 2010.05.20 11:21:29.
