data_PCOD9559152
_publ_section_title
;
Structure prediction by ZEFSAII (Michael W. Deem and Ramdas Pophale) SiO2 
 PCOD9559152
Probable space group: I -4 M 2
;
_chemical_formula_sum "Si O2"
_cell_formula_units_Z 44
_cell_length_a 11.423038
_cell_length_b 11.423038
_cell_length_c 13.944281
_cell_angle_alpha 90.000000
_cell_angle_beta 90.000000
_cell_angle_gamma 90.000000
_cell_volume 1819.530622
_symmetry_space_group_name_H-M "I -4 M 2"
_symmetry_group_IT_number 119
_symmetry_cell_setting 'tetragonal'
loop_
_space_group_symop_operation_xyz
x,y,z
y,-x,-z
-x,-y,z
-y,x,-z
y,x,-z
-y,-x,-z
-x,y,z
x,-y,z
1/2+x,1/2+y,1/2+z
1/2+y,1/2-x,1/2-z
1/2-x,1/2-y,1/2+z
1/2-y,1/2+x,1/2-z
1/2+y,1/2+x,1/2-z
1/2-y,1/2-x,1/2-z
1/2-x,1/2+y,1/2+z
1/2+x,1/2-y,1/2+z
loop_
_atom_site_type_symbol
_atom_site_label
_atom_site_fract_x
_atom_site_fract_y
_atom_site_fract_z
Si Si1 0.735611 0.000000 0.398039
Si Si2 0.500000 0.372984 0.679689
Si Si3 0.137307 0.500000 0.107426
Si Si4 0.762285 0.251605 0.116066
Si Si5 0.500000 0.500000 0.872048
O O1 0.655361 0.000000 0.492005
O O2 0.719994 0.129177 0.350549
O O3 0.875006 0.000000 0.424323
O O4 0.500000 0.500000 0.631780
O O5 0.624195 0.318992 0.650182
O O6 0.500000 0.397109 0.793454
O O7 0.198960 0.617324 0.141567
O O8 0.000000 0.500000 0.130764
O O9 0.755888 0.244113 0.000000
#
# Coordination Sequence:
#
# PCOD9559152 Si02
#       5
#     8   8   8  16   4
#     4  10  22  39  63  91 131 176 221 270 320 410
#     4  10  24  38  61  90 127 181 209 267 328 401
#     4  10  19  35  64 102 128 156 206 293 346 392
#     4  10  21  37  66  96 131 161 218 280 343 382
#     4  10  24  44  60  84 134 186 230 240 326 428
#
# _framework density 24.18206
#
# number of rings (size 3 to 8) (size 9 to 14) (size 15 to 20)
#    0.545    1.455    1.818    1.091    2.545    7.273 
#    0.000    0.000    4.000    0.000    0.000    0.000 
#    0.000    0.000    0.000    0.000    0.000    0.000 
#
# Total GULP energy -122743.564739 kJ/mol
# GULP energy per Si atom -5579.252943 kJ/mol
# Density = 2.412702 g / cm^3
# Si number density = 24.182060 Si / 1000 Ang^3
#
#
#
# Elastic Constant Matrix: (Units=GPa)
#
#
# Indices 1 2 3 4 5 6 
#
# 1 231.1009 102.3895 32.7645 0.0000 0.0000 0.0000
# 2 102.3895 231.1011 32.7643 0.0000 0.0000 0.0000
# 3 32.7645 32.7643 65.7271 0.0000 0.0000 0.0000
# 4 0.0000 0.0000 0.0000 20.7023 0.0000 0.0000
# 5 0.0000 0.0000 0.0000 0.0000 20.7023 0.0000
# 6 0.0000 0.0000 0.0000 0.0000 0.0000 51.1926
#
#
#
# Elastic Compliance Matrix: (Units=1/GPa)
#
#
# Indices 1 2 3 4 5 6 
#
# 1 0.005547 -0.002223 -0.001657 0.000000 0.000000 0.000000
# 2 -0.002223 0.005547 -0.001657 0.000000 0.000000 0.000000
# 3 -0.001657 -0.001657 0.016867 0.000000 0.000000 0.000000
# 4 0.000000 0.000000 0.000000 0.048304 0.000000 0.000000
# 5 0.000000 0.000000 0.000000 0.000000 0.048304 0.000000
# 6 0.000000 0.000000 0.000000 0.000000 0.000000 0.019534
#
#
# Mechanical properties :
#
#
# Convention : Reuss Voigt Hill
#
# Bulk Modulus (GPa) = 59.21868 95.97396 77.59632
# Shear Modulus (GPa) = 31.09376 42.52017 36.80697
#
# Velocity S-wave (km/s) = 3.58972 4.19780 3.90561
# Velocity P-wave (km/s) = 6.45936 7.95422 7.24544
#
# Compressibility (1/GPa) = 0.01688656
#
# Stress axis : x y z
#
# Youngs Moduli (GPa) = 180.28559 180.28588 59.28912
#
# Poissons Ratio (x) = 0.40070 0.09825
# Poissons Ratio (y) = 0.40070 0.09825
# Poissons Ratio (z) = 0.29875 0.29875
#
# Static dielectric constant tensor:
#      x y z
#    x 1.993950 0.000000 0.000000 
#    y 0.000000 1.993940 0.000000 
#    z 0.000000 0.000000 1.948900 
# 
# From -- ./inp_files/6083.got.cif
#   From: 2010.05.17/outbox.cif.g08.bks.cpg/sg119_4_cif.got.tgz:6083.got - 2010.05.20 11:21:29.
