data_PCOD9559952
_publ_section_title
;
Structure prediction by ZEFSAII (Michael W. Deem and Ramdas Pophale) SiO2 
 PCOD9559952
Probable space group: I -4 C 2
;
_chemical_formula_sum "Si O2"
_cell_formula_units_Z 92
_cell_length_a 14.053513
_cell_length_b 14.053513
_cell_length_c 29.859858
_cell_angle_alpha 90.000000
_cell_angle_beta 90.000000
_cell_angle_gamma 90.000000
_cell_volume 5897.358612
_symmetry_space_group_name_H-M "I -4 C 2"
_symmetry_group_IT_number 120
_symmetry_cell_setting 'tetragonal'
loop_
_space_group_symop_operation_xyz
x,y,z
y,-x,-z
-x,-y,z
-y,x,-z
y,x,1/2-z
-y,-x,1/2-z
-x,y,1/2+z
x,-y,1/2+z
1/2+x,1/2+y,1/2+z
1/2+y,1/2-x,1/2-z
1/2-x,1/2-y,1/2+z
1/2-y,1/2+x,1/2-z
1/2+y,1/2+x,-z
1/2-y,1/2-x,-z
1/2-x,1/2+y,z
1/2+x,1/2-y,z
loop_
_atom_site_type_symbol
_atom_site_label
_atom_site_fract_x
_atom_site_fract_y
_atom_site_fract_z
Si Si1 0.608830 0.004440 0.913039
Si Si2 0.315169 0.847580 0.351217
Si Si3 0.000000 0.000000 0.250000
Si Si4 0.000000 0.500000 0.500000
Si Si5 0.300295 0.838036 0.853089
Si Si6 0.683935 0.985049 0.698801
Si Si7 0.000000 0.500000 0.750000
Si Si8 0.999667 0.794221 0.208967
O O1 0.663007 0.913878 0.893640
O O2 0.500000 0.000000 0.893853
O O3 0.589160 0.002336 0.966052
O O4 0.662042 0.096259 0.893591
O O5 0.268000 0.748697 0.364567
O O6 0.415501 0.827472 0.326667
O O7 0.248238 0.909126 0.317630
O O8 0.000055 0.093112 0.218006
O O9 0.394981 0.791867 0.831349
O O10 0.245008 0.908029 0.818328
O O11 0.751164 0.998552 0.741173
O O12 0.580943 0.957881 0.719008
#
# Coordination Sequence:
#
# PCOD9559952 Si02
#       8
#    16  16   4   4  16  16   4  16
#     4   9  18  37  61  80 103 134 163 213 269 321
#     4  11  21  33  52  80 104 138 182 226 267 313
#     4  12  24  36  36  60 108 160 182 232 276 308
#     4   8  16  38  68  84 102 128 160 216 270 316
#     4  11  21  33  52  80 104 138 182 226 267 313
#     4  12  18  32  51  72 103 141 192 241 263 291
#     4  12  16  30  52  72  92 134 204 244 274 276
#     4  11  22  32  46  65 105 148 193 224 264 308
#
# _framework density 15.600206
#
# number of rings (size 3 to 8) (size 9 to 14) (size 15 to 20)
#    0.522    0.696    5.217    3.130    0.000    1.391 
#    0.000    0.870    0.000    0.000    0.000    0.000 
#    0.000    5.565    0.000    0.000    0.000    0.000 
#
# Total GULP energy -256425.998804 kJ/mol
# GULP energy per Si atom -5574.478235 kJ/mol
# Density = 1.556470 g / cm^3
# Si number density = 15.600206 Si / 1000 Ang^3
#
#
#
# Elastic Constant Matrix: (Units=GPa)
#
#
# Indices 1 2 3 4 5 6 
#
# 1 108.3298 41.9643 45.4211 0.0000 0.0000 0.0000
# 2 41.9643 108.3298 45.4211 0.0000 0.0000 0.0000
# 3 45.4211 45.4211 107.9067 0.0000 0.0000 0.0000
# 4 0.0000 0.0000 0.0000 10.6378 0.0000 0.0000
# 5 0.0000 0.0000 0.0000 0.0000 10.6378 0.0000
# 6 0.0000 0.0000 0.0000 0.0000 0.0000 27.2601
#
#
#
# Elastic Compliance Matrix: (Units=1/GPa)
#
#
# Indices 1 2 3 4 5 6 
#
# 1 0.011996 -0.003072 -0.003756 0.000000 0.000000 0.000000
# 2 -0.003072 0.011996 -0.003756 0.000000 0.000000 0.000000
# 3 -0.003756 -0.003756 0.012430 0.000000 0.000000 0.000000
# 4 0.000000 0.000000 0.000000 0.094005 0.000000 0.000000
# 5 0.000000 0.000000 0.000000 0.000000 0.094005 0.000000
# 6 0.000000 0.000000 0.000000 0.000000 0.000000 0.036684
#
#
# Mechanical properties :
#
#
# Convention : Reuss Voigt Hill
#
# Bulk Modulus (GPa) = 65.56440 65.57549 65.56994
# Shear Modulus (GPa) = 17.39924 22.49110 19.94517
#
# Velocity S-wave (km/s) = 3.34327 3.80112 3.57952
# Velocity P-wave (km/s) = 7.55132 7.83524 7.69459
#
# Compressibility (1/GPa) = 0.01525218
#
# Stress axis : x y z
#
# Youngs Moduli (GPa) = 83.36041 83.36041 80.45284
#
# Poissons Ratio (x) = 0.25608 0.30221
# Poissons Ratio (y) = 0.25608 0.30221
# Poissons Ratio (z) = 0.31314 0.31314
#
# Static dielectric constant tensor:
#      x y z
#    x 1.530190 0.000000 0.000000 
#    y 0.000000 1.530190 0.000000 
#    z 0.000000 0.000000 1.505690 
# 
# From -- ./inp_files/6668.got.cif
#   From: 2010.05.17/outbox.cif.g08.bks.cpg/sg120_4_cif.got.tgz:6668.got - 2010.05.20 11:28:13.
