data_PCOD9559738
_publ_section_title
;
Structure prediction by ZEFSAII (Michael W. Deem and Ramdas Pophale) SiO2 
 PCOD9559738
Probable space group: I -4 C 2
;
_chemical_formula_sum "Si O2"
_cell_formula_units_Z 96
_cell_length_a 13.627738
_cell_length_b 13.627738
_cell_length_c 20.777388
_cell_angle_alpha 90.000000
_cell_angle_beta 90.000000
_cell_angle_gamma 90.000000
_cell_volume 3858.677661
_symmetry_space_group_name_H-M "I -4 C 2"
_symmetry_group_IT_number 120
_symmetry_cell_setting 'tetragonal'
loop_
_space_group_symop_operation_xyz
x,y,z
y,-x,-z
-x,-y,z
-y,x,-z
y,x,1/2-z
-y,-x,1/2-z
-x,y,1/2+z
x,-y,1/2+z
1/2+x,1/2+y,1/2+z
1/2+y,1/2-x,1/2-z
1/2-x,1/2-y,1/2+z
1/2-y,1/2+x,1/2-z
1/2+y,1/2+x,-z
1/2-y,1/2-x,-z
1/2-x,1/2+y,z
1/2+x,1/2-y,z
loop_
_atom_site_type_symbol
_atom_site_label
_atom_site_fract_x
_atom_site_fract_y
_atom_site_fract_z
Si Si1 0.639300 0.580950 0.496157
Si Si2 0.696321 0.094209 0.834117
Si Si3 0.927283 0.239440 0.262743
Si Si4 0.103073 0.554301 0.928457
Si Si5 0.813499 0.742800 0.928127
Si Si6 0.259947 0.032576 0.114755
O O1 0.624523 0.466295 0.486200
O O2 0.685380 0.639001 0.435933
O O3 0.701184 0.587552 0.560261
O O4 0.617567 0.153765 0.787374
O O5 0.740932 0.191819 0.868504
O O6 0.746915 0.009844 0.791952
O O7 0.670207 0.030504 0.898710
O O8 0.838970 0.161031 0.250000
O O9 0.995284 0.204271 0.322776
O O10 0.092787 0.640843 0.876040
O O11 0.000000 0.500000 0.929894
O O12 0.105170 0.605170 0.000000
O O13 0.927151 0.713584 0.917333
O O14 0.787725 0.712275 0.000000
#
# Coordination Sequence:
#
# PCOD9559738 Si02
#       6
#    16  16  16  16  16  16
#     4   9  20  42  69 106 152 201 249 315 396 484
#     4  11  24  45  75 106 154 196 256 327 391 462
#     4  11  25  47  74 113 153 211 268 318 386 468
#     4  11  20  37  71 114 148 181 240 336 421 463
#     4  10  20  40  65 108 141 186 248 320 386 459
#     4  10  21  41  68 108 153 192 259 311 393 476
#
# _framework density 24.878988
#
# number of rings (size 3 to 8) (size 9 to 14) (size 15 to 20)
#    0.000    1.667    3.333    2.000    0.000    0.667 
#   42.000    0.000    0.000    0.500    0.000    0.000 
#    0.000    0.000    0.000    0.000    0.000    0.000 
#
# Total GULP energy -267310.008311 kJ/mol
# GULP energy per Si atom -5568.958506 kJ/mol
# Density = 2.482236 g / cm^3
# Si number density = 24.878988 Si / 1000 Ang^3
#
#
#
# Elastic Constant Matrix: (Units=GPa)
#
#
# Indices 1 2 3 4 5 6 
#
# 1 106.7350 39.4138 58.1667 0.0000 0.0000 0.0000
# 2 39.4138 106.7358 58.1658 0.0000 0.0000 0.0000
# 3 58.1667 58.1658 133.3513 0.0000 0.0000 0.0000
# 4 0.0000 0.0000 0.0000 42.7637 0.0000 0.0000
# 5 0.0000 0.0000 0.0000 0.0000 42.7644 0.0000
# 6 0.0000 0.0000 0.0000 0.0000 0.0000 24.8373
#
#
#
# Elastic Compliance Matrix: (Units=1/GPa)
#
#
# Indices 1 2 3 4 5 6 
#
# 1 0.012668 -0.002186 -0.004572 0.000000 0.000000 0.000000
# 2 -0.002186 0.012668 -0.004572 0.000000 0.000000 0.000000
# 3 -0.004572 -0.004572 0.011487 0.000000 0.000000 0.000000
# 4 0.000000 0.000000 0.000000 0.023384 0.000000 0.000000
# 5 0.000000 0.000000 0.000000 0.000000 0.023384 0.000000
# 6 0.000000 0.000000 0.000000 0.000000 0.000000 0.040262
#
#
# Mechanical properties :
#
#
# Convention : Reuss Voigt Hill
#
# Bulk Modulus (GPa) = 70.60762 73.14608 71.87685
# Shear Modulus (GPa) = 33.06127 34.81147 33.93637
#
# Velocity S-wave (km/s) = 3.64934 3.74469 3.69732
# Velocity P-wave (km/s) = 6.79698 6.93985 6.86879
#
# Compressibility (1/GPa) = 0.01416278
#
# Stress axis : x y z
#
# Youngs Moduli (GPa) = 78.93965 78.94117 87.05186
#
# Poissons Ratio (x) = 0.17259 0.39800
# Poissons Ratio (y) = 0.17259 0.39798
# Poissons Ratio (z) = 0.36091 0.36090
#
# Static dielectric constant tensor:
#      x y z
#    x 2.038680 0.000000 0.000000 
#    y 0.000000 2.038690 0.000000 
#    z 0.000000 0.000000 2.016200 
# 
# From -- ./inp_files/5344.got.cif
#   From: 2010.05.17/outbox.cif.g08.bks.cpg/sg120_3_cif.got.tgz:5344.got - 2010.05.20 11:28:13.
