data_PCOD9559890
_publ_section_title
;
Structure prediction by ZEFSAII (Michael W. Deem and Ramdas Pophale) SiO2 
 PCOD9559890
Probable space group: I -4 C 2
;
_chemical_formula_sum "Si O2"
_cell_formula_units_Z 60
_cell_length_a 18.838708
_cell_length_b 18.838708
_cell_length_c 7.608069
_cell_angle_alpha 90.000000
_cell_angle_beta 90.000000
_cell_angle_gamma 90.000000
_cell_volume 2700.080248
_symmetry_space_group_name_H-M "I -4 C 2"
_symmetry_group_IT_number 120
_symmetry_cell_setting 'tetragonal'
loop_
_space_group_symop_operation_xyz
x,y,z
y,-x,-z
-x,-y,z
-y,x,-z
y,x,1/2-z
-y,-x,1/2-z
-x,y,1/2+z
x,-y,1/2+z
1/2+x,1/2+y,1/2+z
1/2+y,1/2-x,1/2-z
1/2-x,1/2-y,1/2+z
1/2-y,1/2+x,1/2-z
1/2+y,1/2+x,-z
1/2-y,1/2-x,-z
1/2-x,1/2+y,z
1/2+x,1/2-y,z
loop_
_atom_site_type_symbol
_atom_site_label
_atom_site_fract_x
_atom_site_fract_y
_atom_site_fract_z
Si Si1 0.895861 0.316695 0.748064
Si Si2 0.332960 0.667041 0.250000
Si Si3 0.500000 0.000000 0.750000
Si Si4 0.579313 0.413481 0.956357
Si Si5 0.847410 0.544073 0.136682
O O1 0.847462 0.249622 0.776102
O O2 0.853462 0.391212 0.777126
O O3 0.921705 0.324717 0.545732
O O4 0.972114 0.304095 0.838289
O O5 0.361517 0.622963 0.417763
O O6 0.512756 0.072608 0.854678
O O7 0.595215 0.404786 0.750000
O O8 0.494940 0.404017 0.988618
#
# Coordination Sequence:
#
# PCOD9559890 Si02
#       5
#    16   8   4  16  16
#     4  10  23  40  65  98 135 178 225 276 335 410
#     4  12  26  41  68 100 142 173 226 282 348 420
#     4   8  16  34  72 110 124 178 240 278 312 418
#     4  11  21  39  66  95 127 175 239 292 330 388
#     4   9  20  41  68  97 138 176 225 277 337 398
#
# _framework density 22.221561000000001
#
# number of rings (size 3 to 8) (size 9 to 14) (size 15 to 20)
#    0.000    1.867    2.667    0.800    3.733   16.000 
#    0.000    5.333    2.933    0.000    0.000    0.000 
#    0.000    0.000    0.000    0.000    0.000    0.000 
#
# Total GULP energy -167464.286749 kJ/mol
# GULP energy per Si atom -5582.142892 kJ/mol
# Density = 2.217098 g / cm^3
# Si number density = 22.221561 Si / 1000 Ang^3
#
#
#
# Elastic Constant Matrix: (Units=GPa)
#
#
# Indices 1 2 3 4 5 6 
#
# 1 -279.1584 418.3472 -9.6173 0.0000 0.0000 0.0000
# 2 418.3472 -279.1997 -9.6394 0.0000 0.0000 0.0000
# 3 -9.6173 -9.6394 68.6162 0.0000 0.0000 0.0000
# 4 0.0000 0.0000 0.0000 13.8995 0.0000 0.0000
# 5 0.0000 0.0000 0.0000 0.0000 13.9009 0.0000
# 6 0.0000 0.0000 0.0000 0.0000 0.0000 46.1941
#
#
#
# Elastic Compliance Matrix: (Units=1/GPa)
#
#
# Indices 1 2 3 4 5 6 
#
# 1 0.002947 0.004381 0.001029 0.000000 0.000000 0.000000
# 2 0.004381 0.002947 0.001028 0.000000 0.000000 0.000000
# 3 0.001029 0.001028 0.014862 0.000000 0.000000 0.000000
# 4 0.000000 0.000000 0.000000 0.071945 0.000000 0.000000
# 5 0.000000 0.000000 0.000000 0.000000 0.071938 0.000000
# 6 0.000000 0.000000 0.000000 0.000000 0.000000 0.021648
#
#
# Mechanical properties :
#
#
# Convention : Reuss Voigt Hill
#
# Bulk Modulus (GPa) = 29.73443 34.27104 32.00274
# Shear Modulus (GPa) = 27.08224 -44.45658 -8.68717
#
# Velocity S-wave (km/s) = 3.49483 -4.47767 -1.97935
# Velocity P-wave (km/s) = 5.44932 3.35809 3.03466
#
# Compressibility (1/GPa) = 0.03363105
#
# Stress axis : x y z
#
# Youngs Moduli (GPa) = 339.28856 339.34602 67.28394
#
# Poissons Ratio (x) = -1.48658 -0.06920
# Poissons Ratio (y) = -1.48633 -0.06917
# Poissons Ratio (z) = -0.34896 -0.34884
#
# Static dielectric constant tensor:
#      x y z
#    x 1.833770 0.000000 0.000000 
#    y 0.000000 1.833770 0.000000 
#    z 0.000000 0.000000 2.170280 
# 
# From -- ./inp_files/1099.got.cif
#   From: 2010.05.17/outbox.cif.g08.bks.cpg/sg120_1_cif.got.tgz:1099.got - 2010.05.20 11:28:13.
