data_PCOD9559190
_publ_section_title
;
Structure prediction by ZEFSAII (Michael W. Deem and Ramdas Pophale) SiO2 
 PCOD9559190
Probable space group: I -4 M 2
;
_chemical_formula_sum "Si O2"
_cell_formula_units_Z 88
_cell_length_a 14.560255
_cell_length_b 14.560255
_cell_length_c 23.253027
_cell_angle_alpha 90.000000
_cell_angle_beta 90.000000
_cell_angle_gamma 90.000000
_cell_volume 4929.665574
_symmetry_space_group_name_H-M "I -4 M 2"
_symmetry_group_IT_number 119
_symmetry_cell_setting 'tetragonal'
loop_
_space_group_symop_operation_xyz
x,y,z
y,-x,-z
-x,-y,z
-y,x,-z
y,x,-z
-y,-x,-z
-x,y,z
x,-y,z
1/2+x,1/2+y,1/2+z
1/2+y,1/2-x,1/2-z
1/2-x,1/2-y,1/2+z
1/2-y,1/2+x,1/2-z
1/2+y,1/2+x,1/2-z
1/2-y,1/2-x,1/2-z
1/2-x,1/2+y,1/2+z
1/2+x,1/2-y,1/2+z
loop_
_atom_site_type_symbol
_atom_site_label
_atom_site_fract_x
_atom_site_fract_y
_atom_site_fract_z
Si Si1 0.286464 0.610031 0.448983
Si Si2 0.608582 0.608582 0.000000
Si Si3 0.747297 0.609778 0.769148
Si Si4 0.890538 0.108183 0.165865
Si Si5 0.891321 0.606001 0.987615
Si Si6 0.762084 0.111011 0.398924
O O1 0.342947 0.657054 0.500000
O O2 0.298790 0.500000 0.452659
O O3 0.327300 0.638033 0.387366
O O4 0.179675 0.629770 0.462707
O O5 0.642578 0.660919 0.056354
O O6 0.623840 0.500000 0.006186
O O7 0.760156 0.500000 0.770094
O O8 0.838920 0.661081 0.750000
O O9 0.667218 0.629018 0.723092
O O10 0.726525 0.642851 0.833950
O O11 0.000000 0.119368 0.175595
O O12 0.875417 0.000000 0.151030
O O13 0.868270 0.500000 0.002349
O O14 0.000000 0.610573 0.976060
O O15 0.833993 0.631760 0.930621
O O16 0.768674 0.000000 0.396373
#
# Coordination Sequence:
#
# PCOD9559190 Si02
#       6
#    16   8  16  16  16  16
#     4  10  20  32  53  82 109 138 172 215 266 317
#     4   9  18  32  52  78 104 128 161 208 258 306
#     4  10  22  36  52  75 104 139 177 214 256 311
#     4   9  19  36  55  77 107 139 174 218 266 317
#     4   9  19  34  51  75 108 142 174 211 257 309
#     4   9  19  34  50  72 100 133 172 211 250 298
#
# _framework density 17.851109999999998
#
# number of rings (size 3 to 8) (size 9 to 14) (size 15 to 20)
#    0.000    2.636    0.000    0.545    3.818    2.545 
#    0.000    5.455    0.000    1.091    0.000    0.000 
#    0.000    0.000    0.000   14.182    0.000    0.545 
#
# Total GULP energy -245356.931981 kJ/mol
# GULP energy per Si atom -5576.293909 kJ/mol
# Density = 1.781048 g / cm^3
# Si number density = 17.851110 Si / 1000 Ang^3
#
#
#
# Elastic Constant Matrix: (Units=GPa)
#
#
# Indices 1 2 3 4 5 6 
#
# 1 73.2065 40.5736 69.4671 0.0000 0.0000 0.0000
# 2 40.5736 73.2128 69.4681 0.0000 0.0000 0.0000
# 3 69.4671 69.4681 181.3842 0.0000 0.0000 0.0000
# 4 0.0000 0.0000 0.0000 27.4235 0.0000 0.0000
# 5 0.0000 0.0000 0.0000 0.0000 27.4228 0.0000
# 6 0.0000 0.0000 0.0000 0.0000 0.0000 15.4877
#
#
#
# Elastic Compliance Matrix: (Units=1/GPa)
#
#
# Indices 1 2 3 4 5 6 
#
# 1 0.023576 -0.007066 -0.006323 0.000000 0.000000 0.000000
# 2 -0.007066 0.023574 -0.006322 0.000000 0.000000 0.000000
# 3 -0.006323 -0.006322 0.010356 0.000000 0.000000 0.000000
# 4 0.000000 0.000000 0.000000 0.036465 0.000000 0.000000
# 5 0.000000 0.000000 0.000000 0.000000 0.036466 0.000000
# 6 0.000000 0.000000 0.000000 0.000000 0.000000 0.064567
#
#
# Mechanical properties :
#
#
# Convention : Reuss Voigt Hill
#
# Bulk Modulus (GPa) = 55.29956 76.31345 65.80650
# Shear Modulus (GPa) = 20.79391 23.95311 22.37351
#
# Velocity S-wave (km/s) = 3.41670 3.66707 3.54409
# Velocity P-wave (km/s) = 6.82719 7.79568 7.32746
#
# Compressibility (1/GPa) = 0.01808333
#
# Stress axis : x y z
#
# Youngs Moduli (GPa) = 42.41531 42.42043 96.56063
#
# Poissons Ratio (x) = 0.29974 0.61057
# Poissons Ratio (y) = 0.29970 0.61048
# Poissons Ratio (z) = 0.26820 0.26819
#
# Static dielectric constant tensor:
#      x y z
#    x 1.619940 0.000000 0.000000 
#    y 0.000000 1.619940 0.000000 
#    z 0.000000 0.000000 1.585980 
# 
# From -- ./inp_files/7708.got.cif
#   From: 2010.05.17/outbox.cif.g08.bks.cpg/sg119_4_cif.got.tgz:7708.got - 2010.05.20 11:21:29.
