data_PCOD9559508
_publ_section_title
;
Structure prediction by ZEFSAII (Michael W. Deem and Ramdas Pophale) SiO2 
 PCOD9559508
Probable space group: I -4 M 2
;
_chemical_formula_sum "Si O2"
_cell_formula_units_Z 56
_cell_length_a 14.088163
_cell_length_b 14.088163
_cell_length_c 12.497782
_cell_angle_alpha 90.000000
_cell_angle_beta 90.000000
_cell_angle_gamma 90.000000
_cell_volume 2480.513988
_symmetry_space_group_name_H-M "I -4 M 2"
_symmetry_group_IT_number 119
_symmetry_cell_setting 'tetragonal'
loop_
_space_group_symop_operation_xyz
x,y,z
y,-x,-z
-x,-y,z
-y,x,-z
y,x,-z
-y,-x,-z
-x,y,z
x,-y,z
1/2+x,1/2+y,1/2+z
1/2+y,1/2-x,1/2-z
1/2-x,1/2-y,1/2+z
1/2-y,1/2+x,1/2-z
1/2+y,1/2+x,1/2-z
1/2-y,1/2-x,1/2-z
1/2-x,1/2+y,1/2+z
1/2+x,1/2-y,1/2+z
loop_
_atom_site_type_symbol
_atom_site_label
_atom_site_fract_x
_atom_site_fract_y
_atom_site_fract_z
Si Si1 0.111049 0.762957 0.289173
Si Si2 0.889690 0.602270 0.879434
Si Si3 0.888431 0.111570 0.500000
Si Si4 0.691069 0.610648 0.603614
O O1 0.173757 0.673757 0.250000
O O2 0.126661 0.813327 0.403997
O O3 0.141669 0.841713 0.203478
O O4 0.000000 0.739776 0.281435
O O5 0.846078 0.500000 0.909009
O O6 0.890828 0.609173 0.750000
O O7 0.849658 0.702327 0.917057
O O8 0.000000 0.598456 0.914283
O O9 0.000000 0.120787 0.535049
O O10 0.629385 0.629385 0.500000
O O11 0.702410 0.500000 0.625090
#
# Coordination Sequence:
#
# PCOD9559508 Si02
#       4
#    16  16   8  16
#     4  11  25  45  71 102 141 188 240 296 362 436
#     4   8  15  32  59  90 124 163 213 277 341 397
#     4   9  20  44  78 110 138 179 242 310 368 427
#     4  11  23  39  64 100 140 180 228 290 361 431
#
# _framework density 22.575966000000001
#
# number of rings (size 3 to 8) (size 9 to 14) (size 15 to 20)
#    0.000    2.143    0.000    3.429    2.000    3.429 
#    0.000    2.857    0.000    3.429    0.000    0.000 
#    0.000    0.571    0.000    0.000    0.000    0.000 
#
# Total GULP energy -156434.552898 kJ/mol
# GULP energy per Si atom -5586.948318 kJ/mol
# Density = 2.252458 g / cm^3
# Si number density = 22.575966 Si / 1000 Ang^3
#
#
#
# Elastic Constant Matrix: (Units=GPa)
#
#
# Indices 1 2 3 4 5 6 
#
# 1 168.4115 54.2308 67.0455 0.0000 0.0000 0.0000
# 2 54.2308 168.4099 67.0457 0.0000 0.0000 0.0000
# 3 67.0455 67.0457 98.1407 0.0000 0.0000 0.0000
# 4 0.0000 0.0000 0.0000 20.5373 0.0000 0.0000
# 5 0.0000 0.0000 0.0000 0.0000 20.5339 0.0000
# 6 0.0000 0.0000 0.0000 0.0000 0.0000 34.2328
#
#
#
# Elastic Compliance Matrix: (Units=1/GPa)
#
#
# Indices 1 2 3 4 5 6 
#
# 1 0.008195 -0.000563 -0.005213 0.000000 0.000000 0.000000
# 2 -0.000563 0.008195 -0.005214 0.000000 0.000000 0.000000
# 3 -0.005213 -0.005214 0.017313 0.000000 0.000000 0.000000
# 4 0.000000 0.000000 0.000000 0.048692 0.000000 0.000000
# 5 0.000000 0.000000 0.000000 0.000000 0.048700 0.000000
# 6 0.000000 0.000000 0.000000 0.000000 0.000000 0.029212
#
#
# Mechanical properties :
#
#
# Convention : Reuss Voigt Hill
#
# Bulk Modulus (GPa) = 85.31195 90.17845 87.74520
# Shear Modulus (GPa) = 26.85373 31.50347 29.17860
#
# Velocity S-wave (km/s) = 3.45263 3.73962 3.59898
# Velocity P-wave (km/s) = 7.33247 7.66012 7.49808
#
# Compressibility (1/GPa) = 0.01172169
#
# Stress axis : x y z
#
# Youngs Moduli (GPa) = 122.02960 122.02762 57.76083
#
# Poissons Ratio (x) = 0.06874 0.30113
# Poissons Ratio (y) = 0.06874 0.30114
# Poissons Ratio (z) = 0.63620 0.63620
#
# Static dielectric constant tensor:
#      x y z
#    x 1.870930 0.000000 0.000000 
#    y 0.000000 1.870940 0.000000 
#    z 0.000000 0.000000 1.810370 
# 
# From -- ./inp_files/3552.got.cif
#   From: 2010.05.17/outbox.cif.g08.bks.cpg/sg119_2_cif.got.tgz:3552.got - 2010.05.20 11:21:29.
