data_PCOD9559901
_publ_section_title
;
Structure prediction by ZEFSAII (Michael W. Deem and Ramdas Pophale) SiO2 
 PCOD9559901
Probable space group: I -4 C 2
;
_chemical_formula_sum "Si O2"
_cell_formula_units_Z 72
_cell_length_a 17.764761
_cell_length_b 17.764761
_cell_length_c 10.557228
_cell_angle_alpha 90.000000
_cell_angle_beta 90.000000
_cell_angle_gamma 90.000000
_cell_volume 3331.721098
_symmetry_space_group_name_H-M "I -4 C 2"
_symmetry_group_IT_number 120
_symmetry_cell_setting 'tetragonal'
loop_
_space_group_symop_operation_xyz
x,y,z
y,-x,-z
-x,-y,z
-y,x,-z
y,x,1/2-z
-y,-x,1/2-z
-x,y,1/2+z
x,-y,1/2+z
1/2+x,1/2+y,1/2+z
1/2+y,1/2-x,1/2-z
1/2-x,1/2-y,1/2+z
1/2-y,1/2+x,1/2-z
1/2+y,1/2+x,-z
1/2-y,1/2-x,-z
1/2-x,1/2+y,z
1/2+x,1/2-y,z
loop_
_atom_site_type_symbol
_atom_site_label
_atom_site_fract_x
_atom_site_fract_y
_atom_site_fract_z
Si Si1 0.964802 0.213701 0.564492
Si Si2 0.651840 0.368403 0.898048
Si Si3 0.207886 0.707886 0.000000
Si Si4 0.405163 0.181481 0.772489
Si Si5 0.948949 0.364691 0.400773
O O1 0.916620 0.150753 0.491978
O O2 0.930733 0.243521 0.697805
O O3 0.961550 0.288801 0.479623
O O4 0.049999 0.187207 0.577661
O O5 0.633133 0.366868 0.750000
O O6 0.713411 0.304685 0.930999
O O7 0.143104 0.699784 0.895257
O O8 0.358066 0.126545 0.681777
O O9 0.478453 0.132503 0.811599
O O10 0.931693 0.431693 0.500000
#
# Coordination Sequence:
#
# PCOD9559901 Si02
#       5
#    16  16   8  16  16
#     4  11  25  50  73 105 147 187 242 307 366 433
#     4  12  28  48  76 108 144 188 242 301 365 440
#     4  12  26  42  77 108 142 187 248 296 364 420
#     4  11  23  44  69 104 147 192 238 305 357 440
#     4  10  23  43  66 100 149 190 241 299 360 432
#
# _framework density 21.610454000000001
#
# number of rings (size 3 to 8) (size 9 to 14) (size 15 to 20)
#    0.000    0.889    2.222    4.000   10.889    0.889 
#    0.000    1.111    0.000    0.000    0.000    0.000 
#    0.000    0.000    0.000    0.000    0.000    0.000 
#
# Total GULP energy -201464.587028 kJ/mol
# GULP energy per Si atom -5596.238529 kJ/mol
# Density = 2.156127 g / cm^3
# Si number density = 21.610454 Si / 1000 Ang^3
#
#
#
# Elastic Constant Matrix: (Units=GPa)
#
#
# Indices 1 2 3 4 5 6 
#
# 1 103.7650 39.7300 51.7435 0.0000 0.0000 0.0000
# 2 39.7300 103.7659 51.7437 0.0000 0.0000 0.0000
# 3 51.7435 51.7437 135.0363 0.0000 0.0000 0.0000
# 4 0.0000 0.0000 0.0000 28.5177 0.0000 0.0000
# 5 0.0000 0.0000 0.0000 0.0000 28.5178 0.0000
# 6 0.0000 0.0000 0.0000 0.0000 0.0000 35.7516
#
#
#
# Elastic Compliance Matrix: (Units=1/GPa)
#
#
# Indices 1 2 3 4 5 6 
#
# 1 0.012623 -0.002993 -0.003690 0.000000 0.000000 0.000000
# 2 -0.002993 0.012623 -0.003690 0.000000 0.000000 0.000000
# 3 -0.003690 -0.003690 0.010233 0.000000 0.000000 0.000000
# 4 0.000000 0.000000 0.000000 0.035066 0.000000 0.000000
# 5 0.000000 0.000000 0.000000 0.000000 0.035066 0.000000
# 6 0.000000 0.000000 0.000000 0.000000 0.000000 0.027971
#
#
# Mechanical properties :
#
#
# Convention : Reuss Voigt Hill
#
# Bulk Modulus (GPa) = 67.87377 69.88905 68.88141
# Shear Modulus (GPa) = 31.39915 31.84744 31.62330
#
# Velocity S-wave (km/s) = 3.81591 3.84305 3.82950
# Velocity P-wave (km/s) = 7.13379 7.21822 7.17613
#
# Compressibility (1/GPa) = 0.01473323
#
# Stress axis : x y z
#
# Youngs Moduli (GPa) = 79.21864 79.21942 97.71947
#
# Poissons Ratio (x) = 0.23711 0.36060
# Poissons Ratio (y) = 0.23711 0.36059
# Poissons Ratio (z) = 0.29233 0.29233
#
# Static dielectric constant tensor:
#      x y z
#    x 1.785230 0.000000 0.000000 
#    y 0.000000 1.785230 0.000000 
#    z 0.000000 0.000000 1.821410 
# 
# From -- ./inp_files/2481.got.cif
#   From: 2010.05.17/outbox.cif.g08.bks.cpg/sg120_2_cif.got.tgz:2481.got - 2010.05.20 11:28:13.
