data_PCOD9559945
_publ_section_title
;
Structure prediction by ZEFSAII (Michael W. Deem and Ramdas Pophale) SiO2 
 PCOD9559945
Probable space group: I -4 C 2
;
_chemical_formula_sum "Si O2"
_cell_formula_units_Z 96
_cell_length_a 17.118103
_cell_length_b 17.118103
_cell_length_c 12.225785
_cell_angle_alpha 90.000000
_cell_angle_beta 90.000000
_cell_angle_gamma 90.000000
_cell_volume 3582.515058
_symmetry_space_group_name_H-M "I -4 C 2"
_symmetry_group_IT_number 120
_symmetry_cell_setting 'tetragonal'
loop_
_space_group_symop_operation_xyz
x,y,z
y,-x,-z
-x,-y,z
-y,x,-z
y,x,1/2-z
-y,-x,1/2-z
-x,y,1/2+z
x,-y,1/2+z
1/2+x,1/2+y,1/2+z
1/2+y,1/2-x,1/2-z
1/2-x,1/2-y,1/2+z
1/2-y,1/2+x,1/2-z
1/2+y,1/2+x,-z
1/2-y,1/2-x,-z
1/2-x,1/2+y,z
1/2+x,1/2-y,z
loop_
_atom_site_type_symbol
_atom_site_label
_atom_site_fract_x
_atom_site_fract_y
_atom_site_fract_z
Si Si1 0.871406 0.186600 0.476866
Si Si2 0.380700 0.880700 0.500000
Si Si3 0.693100 0.772927 0.847842
Si Si4 0.048664 0.316896 0.195550
Si Si5 0.353388 0.554206 0.331655
Si Si6 0.349504 0.949512 0.103971
Si Si7 0.389059 0.610942 0.750000
O O1 0.798738 0.199892 0.563058
O O2 0.921947 0.122842 0.546037
O O3 0.855386 0.146602 0.361135
O O4 0.909644 0.268812 0.435436
O O5 0.314546 0.855896 0.411399
O O6 0.370089 0.968835 0.543278
O O7 0.752367 0.752367 0.750000
O O8 0.611735 0.784018 0.782942
O O9 0.033500 0.235959 0.137048
O O10 0.977349 0.344370 0.268852
O O11 0.085049 0.382052 0.116496
O O12 0.375202 0.624799 0.250000
O O13 0.378951 0.481177 0.261688
#
# Coordination Sequence:
#
# PCOD9559945 Si02
#       7
#    16   8  16  16  16  16   8
#     4  12  27  51  89 130 179 230 314 380 466 558
#     4  10  28  52  86 129 182 231 314 386 468 558
#     4  11  24  50  87 127 172 236 298 383 461 558
#     4  11  24  54  82 120 172 232 292 369 463 555
#     4  12  26  53  81 125 179 234 297 377 465 560
#     4  11  28  52  88 128 175 239 297 388 459 556
#     4  12  31  46  86 132 178 240 300 381 478 558
#
# _framework density 26.796816
#
# number of rings (size 3 to 8) (size 9 to 14) (size 15 to 20)
#    0.000    0.667    5.000    0.250    9.333    6.333 
#    1.500    1.667    0.000    0.000    0.000    0.000 
#    0.000    0.000    0.000    0.000    0.000    0.000 
#
# Total GULP energy -267734.706574 kJ/mol
# GULP energy per Si atom -5577.806387 kJ/mol
# Density = 2.673583 g / cm^3
# Si number density = 26.796816 Si / 1000 Ang^3
#
#
#
# Elastic Constant Matrix: (Units=GPa)
#
#
# Indices 1 2 3 4 5 6 
#
# 1 128.1459 51.7094 60.1616 0.0000 0.0000 0.0000
# 2 51.7094 128.1377 60.1608 0.0000 0.0000 0.0000
# 3 60.1616 60.1608 176.5040 0.0000 0.0000 0.0000
# 4 0.0000 0.0000 0.0000 57.9511 0.0000 0.0000
# 5 0.0000 0.0000 0.0000 0.0000 57.9499 0.0000
# 6 0.0000 0.0000 0.0000 0.0000 0.0000 33.1914
#
#
#
# Elastic Compliance Matrix: (Units=1/GPa)
#
#
# Indices 1 2 3 4 5 6 
#
# 1 0.010143 -0.002940 -0.002455 0.000000 0.000000 0.000000
# 2 -0.002940 0.010143 -0.002455 0.000000 0.000000 0.000000
# 3 -0.002455 -0.002455 0.007339 0.000000 0.000000 0.000000
# 4 0.000000 0.000000 0.000000 0.017256 0.000000 0.000000
# 5 0.000000 0.000000 0.000000 0.000000 0.017256 0.000000
# 6 0.000000 0.000000 0.000000 0.000000 0.000000 0.030128
#
#
# Mechanical properties :
#
#
# Convention : Reuss Voigt Hill
#
# Bulk Modulus (GPa) = 83.86210 86.31679 85.08945
# Shear Modulus (GPa) = 44.66627 47.20220 45.93423
#
# Velocity S-wave (km/s) = 4.08714 4.20156 4.14474
# Velocity P-wave (km/s) = 7.32369 7.47121 7.39782
#
# Compressibility (1/GPa) = 0.01192434
#
# Stress axis : x y z
#
# Youngs Moduli (GPa) = 98.59356 98.58656 136.25550
#
# Poissons Ratio (x) = 0.28989 0.33449
# Poissons Ratio (y) = 0.28991 0.33452
# Poissons Ratio (z) = 0.24204 0.24204
#
# Static dielectric constant tensor:
#      x y z
#    x 2.221800 0.000000 0.000000 
#    y 0.000000 2.221810 0.000000 
#    z 0.000000 0.000000 2.632690 
# 
# From -- ./inp_files/2764.got.cif
#   From: 2010.05.17/outbox.cif.g08.bks.cpg/sg120_2_cif.got.tgz:2764.got - 2010.05.20 11:28:13.
