data_PCOD9559047
_publ_section_title
;
Structure prediction by ZEFSAII (Michael W. Deem and Ramdas Pophale) SiO2 
 PCOD9559047
Probable space group: I -4 M 2
;
_chemical_formula_sum "Si O2"
_cell_formula_units_Z 104
_cell_length_a 14.886764
_cell_length_b 14.886764
_cell_length_c 28.309195
_cell_angle_alpha 90.000000
_cell_angle_beta 90.000000
_cell_angle_gamma 90.000000
_cell_volume 6273.763266
_symmetry_space_group_name_H-M "I -4 M 2"
_symmetry_group_IT_number 119
_symmetry_cell_setting 'tetragonal'
loop_
_space_group_symop_operation_xyz
x,y,z
y,-x,-z
-x,-y,z
-y,x,-z
y,x,-z
-y,-x,-z
-x,y,z
x,-y,z
1/2+x,1/2+y,1/2+z
1/2+y,1/2-x,1/2-z
1/2-x,1/2-y,1/2+z
1/2-y,1/2+x,1/2-z
1/2+y,1/2+x,1/2-z
1/2-y,1/2-x,1/2-z
1/2-x,1/2+y,1/2+z
1/2+x,1/2-y,1/2+z
loop_
_atom_site_type_symbol
_atom_site_label
_atom_site_fract_x
_atom_site_fract_y
_atom_site_fract_z
Si Si1 0.283847 0.716154 0.500000
Si Si2 0.098345 0.103854 0.280941
Si Si3 0.217449 0.258949 0.304866
Si Si4 0.397663 0.894736 0.633941
Si Si5 0.106685 0.393875 0.479734
Si Si6 0.601825 0.394479 0.572621
Si Si7 0.829369 0.100422 0.176565
O O1 0.320624 0.819968 0.501480
O O2 0.329516 0.667917 0.545109
O O3 0.172255 0.162533 0.306301
O O4 0.112330 0.108078 0.224271
O O5 0.000000 0.140119 0.292389
O O6 0.103411 0.000000 0.294057
O O7 0.210797 0.289204 0.250000
O O8 0.166294 0.328411 0.338132
O O9 0.321111 0.257525 0.319135
O O10 0.500000 0.869689 0.646475
O O11 0.389002 0.886387 0.577375
O O12 0.384648 0.000000 0.645647
O O13 0.126754 0.500000 0.492512
O O14 0.000000 0.377878 0.491543
O O15 0.500000 0.369605 0.559846
O O16 0.614990 0.500000 0.560649
O O17 0.614716 0.386585 0.628851
O O18 0.791206 0.000000 0.175376
#
# Coordination Sequence:
#
# PCOD9559047 Si02
#       7
#     8  16  16  16  16  16  16
#     4  12  20  29  50  75  96 120 156 200 236 266
#     4   9  17  30  47  66  89 119 156 194 230 269
#     4  10  19  28  44  69  93 119 155 197 229 260
#     4   9  18  32  48  67  95 128 154 178 219 280
#     4   9  19  35  52  70  95 129 163 189 224 284
#     4  10  19  29  44  71 103 126 145 178 230 289
#     4   9  18  31  45  62  91 130 158 178 218 280
#
# _framework density 16.576972999999999
#
# number of rings (size 3 to 8) (size 9 to 14) (size 15 to 20)
#    0.000    2.462    0.000    4.154    0.000    7.385 
#    0.000    0.769    0.000    4.385    0.000    7.538 
#    0.000    0.000    0.000    0.000    0.000    0.000 
#
# Total GULP energy -289688.463397 kJ/mol
# GULP energy per Si atom -5570.931988 kJ/mol
# Density = 1.653924 g / cm^3
# Si number density = 16.576973 Si / 1000 Ang^3
#
#
#
# Elastic Constant Matrix: (Units=GPa)
#
#
# Indices 1 2 3 4 5 6 
#
# 1 90.1463 67.5035 25.7220 0.0000 0.0000 0.0000
# 2 67.5035 90.1465 25.7220 0.0000 0.0000 0.0000
# 3 25.7220 25.7220 32.7658 0.0000 0.0000 0.0000
# 4 0.0000 0.0000 0.0000 18.9393 0.0000 0.0000
# 5 0.0000 0.0000 0.0000 0.0000 18.9393 0.0000
# 6 0.0000 0.0000 0.0000 0.0000 0.0000 24.9733
#
#
#
# Elastic Compliance Matrix: (Units=1/GPa)
#
#
# Indices 1 2 3 4 5 6 
#
# 1 0.026346 -0.017818 -0.006694 0.000000 0.000000 0.000000
# 2 -0.017818 0.026346 -0.006694 0.000000 0.000000 0.000000
# 3 -0.006694 -0.006694 0.041030 0.000000 0.000000 0.000000
# 4 0.000000 0.000000 0.000000 0.052800 0.000000 0.000000
# 5 0.000000 0.000000 0.000000 0.000000 0.052800 0.000000
# 6 0.000000 0.000000 0.000000 0.000000 0.000000 0.040043
#
#
# Mechanical properties :
#
#
# Convention : Reuss Voigt Hill
#
# Bulk Modulus (GPa) = 31.94091 50.10597 41.02344
# Shear Modulus (GPa) = 16.01460 18.84446 17.42953
#
# Velocity S-wave (km/s) = 3.11155 3.37528 3.24609
# Velocity P-wave (km/s) = 5.67618 6.74403 6.23301
#
# Compressibility (1/GPa) = 0.03130781
#
# Stress axis : x y z
#
# Youngs Moduli (GPa) = 37.95664 37.95673 24.37227
#
# Poissons Ratio (x) = 0.67632 0.16316
# Poissons Ratio (y) = 0.67632 0.16316
# Poissons Ratio (z) = 0.25410 0.25410
#
# Static dielectric constant tensor:
#      x y z
#    x 1.571100 0.000000 0.000000 
#    y 0.000000 1.571100 0.000000 
#    z 0.000000 0.000000 1.557590 
# 
# From -- ./inp_files/10456.got.cif
#   From: 2010.05.17/outbox.cif.g08.bks.cpg/sg119_6_cif.got.tgz:10456.got - 2010.05.20 11:21:29.
