data_PCOD9559146
_publ_section_title
;
Structure prediction by ZEFSAII (Michael W. Deem and Ramdas Pophale) SiO2 
 PCOD9559146
Probable space group: I -4 M 2
;
_chemical_formula_sum "Si O2"
_cell_formula_units_Z 120
_cell_length_a 26.579741
_cell_length_b 26.579741
_cell_length_c 9.957688
_cell_angle_alpha 90.000000
_cell_angle_beta 90.000000
_cell_angle_gamma 90.000000
_cell_volume 7034.933623
_symmetry_space_group_name_H-M "I -4 M 2"
_symmetry_group_IT_number 119
_symmetry_cell_setting 'tetragonal'
loop_
_space_group_symop_operation_xyz
x,y,z
y,-x,-z
-x,-y,z
-y,x,-z
y,x,-z
-y,-x,-z
-x,y,z
x,-y,z
1/2+x,1/2+y,1/2+z
1/2+y,1/2-x,1/2-z
1/2-x,1/2-y,1/2+z
1/2-y,1/2+x,1/2-z
1/2+y,1/2+x,1/2-z
1/2-y,1/2-x,1/2-z
1/2-x,1/2+y,1/2+z
1/2+x,1/2-y,1/2+z
loop_
_atom_site_type_symbol
_atom_site_label
_atom_site_fract_x
_atom_site_fract_y
_atom_site_fract_z
Si Si1 0.203743 0.286658 0.509697
Si Si2 0.940565 0.142141 0.000080
Si Si3 0.059893 0.779660 0.765664
Si Si4 0.379629 0.702801 0.007562
Si Si5 0.657870 0.157870 0.750000
Si Si6 0.058321 0.320864 0.118404
Si Si7 0.885220 0.679262 0.843379
Si Si8 0.057141 0.213745 0.241720
O O1 0.255782 0.255782 0.500000
O O2 0.161149 0.245730 0.545225
O O3 0.183648 0.313738 0.374815
O O4 0.205115 0.332721 0.611996
O O5 0.923932 0.182740 0.886315
O O6 0.000000 0.133119 0.979141
O O7 0.907565 0.092436 0.000000
O O8 0.933901 0.166454 0.146863
O O9 0.079281 0.800037 0.623787
O O10 0.081993 0.723422 0.778667
O O11 0.000000 0.776536 0.771741
O O12 0.348679 0.651322 0.000000
O O13 0.404360 0.716274 0.864388
O O14 0.663874 0.097930 0.766640
O O15 0.059105 0.260607 0.138415
O O16 0.000000 0.337010 0.129697
O O17 0.083662 0.336183 0.977113
O O18 0.867125 0.632876 0.750000
O O19 0.000000 0.212839 0.295712
#
# Coordination Sequence:
#
# PCOD9559146 Si02
#       8
#    16  16  16  16   8  16  16  16
#     4  10  22  32  49  77 114 149 179 216 268 337
#     4  10  21  37  57  81 107 144 193 242 294 344
#     4  11  22  37  56  80 110 150 194 235 280 340
#     4  11  21  34  50  77 114 151 185 229 279 334
#     4  10  20  36  54  81 110 142 188 228 272 327
#     4  10  20  37  59  81 110 146 189 233 278 332
#     4  11  21  36  53  79 114 147 183 228 276 336
#     4  10  19  35  55  78 106 144 188 232 281 336
#
# _framework density 17.057729999999999
#
# number of rings (size 3 to 8) (size 9 to 14) (size 15 to 20)
#    0.000    1.600    4.000    1.600    0.933    0.667 
#    0.000    0.000    0.000    0.200    0.000    0.000 
#    0.000   12.000    0.000    0.000    0.000    0.000 
#
# Total GULP energy -334402.933631 kJ/mol
# GULP energy per Si atom -5573.382227 kJ/mol
# Density = 1.701891 g / cm^3
# Si number density = 17.057730 Si / 1000 Ang^3
#
#
#
# Elastic Constant Matrix: (Units=GPa)
#
#
# Indices 1 2 3 4 5 6 
#
# 1 67.4028 45.2623 22.3575 0.0000 0.0000 0.0000
# 2 45.2623 67.4244 22.3529 0.0000 0.0000 0.0000
# 3 22.3575 22.3529 62.0921 0.0000 0.0000 0.0000
# 4 0.0000 0.0000 0.0000 21.8760 0.0000 0.0000
# 5 0.0000 0.0000 0.0000 0.0000 21.8767 0.0000
# 6 0.0000 0.0000 0.0000 0.0000 0.0000 26.7756
#
#
#
# Elastic Compliance Matrix: (Units=1/GPa)
#
#
# Indices 1 2 3 4 5 6 
#
# 1 0.027755 -0.017395 -0.003732 0.000000 0.000000 0.000000
# 2 -0.017395 0.027743 -0.003724 0.000000 0.000000 0.000000
# 3 -0.003732 -0.003724 0.018789 0.000000 0.000000 0.000000
# 4 0.000000 0.000000 0.000000 0.045712 0.000000 0.000000
# 5 0.000000 0.000000 0.000000 0.000000 0.045711 0.000000
# 6 0.000000 0.000000 0.000000 0.000000 0.000000 0.037347
#
#
# Mechanical properties :
#
#
# Convention : Reuss Voigt Hill
#
# Bulk Modulus (GPa) = 40.67282 41.87384 41.27333
# Shear Modulus (GPa) = 19.16040 21.23543 20.19791
#
# Velocity S-wave (km/s) = 3.35515 3.53216 3.44480
# Velocity P-wave (km/s) = 6.23742 6.42157 6.33016
#
# Compressibility (1/GPa) = 0.02458645
#
# Stress axis : x y z
#
# Youngs Moduli (GPa) = 36.02955 36.04472 53.22141
#
# Poissons Ratio (x) = 0.62699 0.19860
# Poissons Ratio (y) = 0.62673 0.19820
# Poissons Ratio (z) = 0.13445 0.13423
#
# Static dielectric constant tensor:
#      x y z
#    x 1.574220 0.000000 0.000000 
#    y 0.000000 1.574210 0.000000 
#    z 0.000000 0.000000 1.617360 
# 
# From -- ./inp_files/2911.got.cif
#   From: 2010.05.17/outbox.cif.g08.bks.cpg/sg119_2_cif.got.tgz:2911.got - 2010.05.20 11:21:29.
