data_PCOD9560949
_publ_section_title
;
Structure prediction by ZEFSAII (Michael W. Deem and Ramdas Pophale) SiO2 
 PCOD9560949
Probable space group: I -4 2 D
;
_chemical_formula_sum "Si O2"
_cell_formula_units_Z 88
_cell_length_a 12.332060
_cell_length_b 12.332060
_cell_length_c 24.767283
_cell_angle_alpha 90.000000
_cell_angle_beta 90.000000
_cell_angle_gamma 90.000000
_cell_volume 3766.601064
_symmetry_space_group_name_H-M "I -4 2 D"
_symmetry_group_IT_number 122
_symmetry_cell_setting 'tetragonal'
loop_
_space_group_symop_operation_xyz
x,y,z
y,-x,-z
-x,-y,z
-y,x,-z
x,1/2-y,1/4-z
-x,1/2+y,1/4-z
-y,1/2-x,1/4+z
y,1/2+x,1/4+z
1/2+x,1/2+y,1/2+z
1/2+y,1/2-x,1/2-z
1/2-x,1/2-y,1/2+z
1/2-y,1/2+x,1/2-z
1/2+x,-y,3/4-z
1/2-x,y,3/4-z
1/2-y,-x,3/4+z
1/2+y,x,3/4+z
loop_
_atom_site_type_symbol
_atom_site_label
_atom_site_fract_x
_atom_site_fract_y
_atom_site_fract_z
Si Si1 0.378371 0.250000 0.625000
Si Si2 0.918571 0.691005 0.504795
Si Si3 0.060500 0.763048 0.039414
Si Si4 0.256813 0.914351 0.051048
Si Si5 0.239037 0.138468 0.210622
Si Si6 0.534014 0.117300 0.110290
O O1 0.458540 0.283222 0.577305
O O2 0.303295 0.342635 0.650348
O O3 0.856727 0.613064 0.462556
O O4 0.836628 0.780245 0.528049
O O5 0.015102 0.754972 0.475964
O O6 0.963913 0.620454 0.554769
O O7 0.151004 0.844443 0.059304
O O8 0.027273 0.777045 0.976467
O O9 0.339228 0.905324 0.099864
O O10 0.323312 0.853843 0.002824
O O11 0.526125 0.250000 0.125000
O O12 0.500000 0.000000 0.138314
#
# Coordination Sequence:
#
# PCOD9560949 Si02
#       6
#     8  16  16  16  16  16
#     4  10  22  38  66 104 130 164 252 306 348 450
#     4  10  21  44  69  91 143 199 228 296 399 451
#     4  10  20  41  67  95 132 184 229 301 383 458
#     4   9  20  39  65  91 137 183 226 283 388 460
#     4   9  21  40  64  99 134 183 236 293 362 460
#     4  11  23  43  70 103 142 198 256 317 382 466
#
# _framework density 23.363237999999999
#
# number of rings (size 3 to 8) (size 9 to 14) (size 15 to 20)
#    0.000    2.182    1.818    0.000    2.545    0.727 
#    9.818   10.909    0.000    0.000    0.000    0.000 
#    0.000    0.000    0.000    0.000    0.000    0.000 
#
# Total GULP energy -245180.767020 kJ/mol
# GULP energy per Si atom -5572.290160 kJ/mol
# Density = 2.331006 g / cm^3
# Si number density = 23.363238 Si / 1000 Ang^3
#
#
#
# Elastic Constant Matrix: (Units=GPa)
#
#
# Indices 1 2 3 4 5 6 
#
# 1 109.4962 34.3077 30.0651 0.0000 0.0000 0.0000
# 2 34.3077 109.4962 30.0651 0.0000 0.0000 0.0000
# 3 30.0651 30.0651 50.6816 0.0000 0.0000 0.0000
# 4 0.0000 0.0000 0.0000 16.9545 0.0000 0.0000
# 5 0.0000 0.0000 0.0000 0.0000 16.9545 0.0000
# 6 0.0000 0.0000 0.0000 0.0000 0.0000 22.1770
#
#
#
# Elastic Compliance Matrix: (Units=1/GPa)
#
#
# Indices 1 2 3 4 5 6 
#
# 1 0.011274 -0.002026 -0.005486 0.000000 0.000000 0.000000
# 2 -0.002026 0.011274 -0.005486 0.000000 0.000000 0.000000
# 3 -0.005486 -0.005486 0.026240 0.000000 0.000000 0.000000
# 4 0.000000 0.000000 0.000000 0.058981 0.000000 0.000000
# 5 0.000000 0.000000 0.000000 0.000000 0.058981 0.000000
# 6 0.000000 0.000000 0.000000 0.000000 0.000000 0.045092
#
#
# Mechanical properties :
#
#
# Convention : Reuss Voigt Hill
#
# Bulk Modulus (GPa) = 43.87585 50.94997 47.41291
# Shear Modulus (GPa) = 20.37199 22.89961 21.63580
#
# Velocity S-wave (km/s) = 2.95611 3.13414 3.04643
# Velocity P-wave (km/s) = 5.52016 5.91204 5.71945
#
# Compressibility (1/GPa) = 0.02279158
#
# Stress axis : x y z
#
# Youngs Moduli (GPa) = 88.70083 88.70083 38.11015
#
# Poissons Ratio (x) = 0.17971 0.20907
# Poissons Ratio (y) = 0.17971 0.20907
# Poissons Ratio (z) = 0.48661 0.48661
#
# Static dielectric constant tensor:
#      x y z
#    x 1.929880 0.000000 0.000000 
#    y 0.000000 1.929880 0.000000 
#    z 0.000000 0.000000 1.906470 
# 
# From -- ./inp_files/9485.got.cif
#   From: 2010.05.17/outbox.cif.g08.bks.cpg/sg122_5_cif.got.tgz:9485.got - 2010.05.20 11:37:33.
