data_PCOD9560285
_publ_section_title
;
Structure prediction by ZEFSAII (Michael W. Deem and Ramdas Pophale) SiO2 
 PCOD9560285
Probable space group: I -4 2 M
;
_chemical_formula_sum "Si O2"
_cell_formula_units_Z 112
_cell_length_a 23.497213
_cell_length_b 23.497213
_cell_length_c 12.685793
_cell_angle_alpha 90.000000
_cell_angle_beta 90.000000
_cell_angle_gamma 90.000000
_cell_volume 7004.067583
_symmetry_space_group_name_H-M "I -4 2 M"
_symmetry_group_IT_number 121
_symmetry_cell_setting 'tetragonal'
loop_
_space_group_symop_operation_xyz
x,y,z
y,-x,-z
-x,-y,z
-y,x,-z
x,-y,-z
-x,y,-z
-y,-x,z
y,x,z
1/2+x,1/2+y,1/2+z
1/2+y,1/2-x,1/2-z
1/2-x,1/2-y,1/2+z
1/2-y,1/2+x,1/2-z
1/2+x,1/2-y,1/2-z
1/2-x,1/2+y,1/2-z
1/2-y,1/2-x,1/2+z
1/2+y,1/2+x,1/2+z
loop_
_atom_site_type_symbol
_atom_site_label
_atom_site_fract_x
_atom_site_fract_y
_atom_site_fract_z
Si Si1 0.505241 0.591461 0.833446
Si Si2 0.178478 0.276012 0.960637
Si Si3 0.864547 0.233601 0.607549
Si Si4 0.794269 0.891343 0.803050
Si Si5 0.652445 0.507176 0.615550
Si Si6 0.420612 0.323193 0.076718
Si Si7 0.621789 0.719452 0.650523
O O1 0.457107 0.542894 0.837241
O O2 0.563003 0.563003 0.876880
O O3 0.514512 0.609361 0.712672
O O4 0.478988 0.645102 0.893194
O O5 0.228827 0.228827 0.963545
O O6 0.144429 0.266868 0.069261
O O7 0.209985 0.334979 0.938633
O O8 0.138027 0.257216 0.864303
O O9 0.815698 0.184303 0.607032
O O10 0.913804 0.212012 0.529807
O O11 0.882222 0.239740 0.728865
O O12 0.847893 0.847893 0.812094
O O13 0.786085 0.903308 0.679328
O O14 0.812876 0.949948 0.857458
O O15 0.625784 0.500000 0.500000
O O16 0.693276 0.561870 0.615168
O O17 0.373075 0.373075 0.072328
O O18 0.667964 0.667964 0.647076
#
# Coordination Sequence:
#
# PCOD9560285 Si02
#       7
#    16  16  16  16  16  16  16
#     4   9  18  30  44  63  85 119 170 215 248 286
#     4   9  17  28  44  65  88 113 146 191 245 300
#     4   9  18  30  46  66  89 115 145 199 256 297
#     4   9  17  29  44  63  87 121 161 196 236 294
#     4  11  19  29  44  62  90 122 153 202 254 288
#     4   8  15  28  45  62  84 113 150 196 249 296
#     4  10  20  31  44  68  92 114 152 195 242 298
#
# _framework density 15.990707
#
# number of rings (size 3 to 8) (size 9 to 14) (size 15 to 20)
#    0.000    2.714    1.429    1.714    2.000    1.714 
#    0.000    3.571    0.000    5.143    0.000    8.000 
#    0.000    0.000    0.000    0.000    0.000    0.714 
#
# Total GULP energy -312291.362363 kJ/mol
# GULP energy per Si atom -5576.631471 kJ/mol
# Density = 1.595431 g / cm^3
# Si number density = 15.990707 Si / 1000 Ang^3
#
#
#
# Elastic Constant Matrix: (Units=GPa)
#
#
# Indices 1 2 3 4 5 6 
#
# 1 45.6873 34.3108 38.3664 0.0000 0.0000 0.0000
# 2 34.3108 45.6872 38.3664 0.0000 0.0000 0.0000
# 3 38.3664 38.3664 140.0045 0.0000 0.0000 0.0000
# 4 0.0000 0.0000 0.0000 17.2994 0.0000 0.0000
# 5 0.0000 0.0000 0.0000 0.0000 17.2995 0.0000
# 6 0.0000 0.0000 0.0000 0.0000 0.0000 29.7096
#
#
#
# Elastic Compliance Matrix: (Units=1/GPa)
#
#
# Indices 1 2 3 4 5 6 
#
# 1 0.052429 -0.035472 -0.004647 0.000000 0.000000 0.000000
# 2 -0.035472 0.052430 -0.004647 0.000000 0.000000 0.000000
# 3 -0.004647 -0.004647 0.009690 0.000000 0.000000 0.000000
# 4 0.000000 0.000000 0.000000 0.057805 0.000000 0.000000
# 5 0.000000 0.000000 0.000000 0.000000 0.057805 0.000000
# 6 0.000000 0.000000 0.000000 0.000000 0.000000 0.033659
#
#
# Mechanical properties :
#
#
# Convention : Reuss Voigt Hill
#
# Bulk Modulus (GPa) = 39.97320 50.38511 45.17915
# Shear Modulus (GPa) = 13.82404 20.88406 17.35405
#
# Velocity S-wave (km/s) = 2.94344 3.61780 3.29790
# Velocity P-wave (km/s) = 6.05011 7.00205 6.54341
#
# Compressibility (1/GPa) = 0.02501676
#
# Stress axis : x y z
#
# Youngs Moduli (GPa) = 19.07328 19.07323 103.20412
#
# Poissons Ratio (x) = 0.67656 0.47959
# Poissons Ratio (y) = 0.67656 0.47959
# Poissons Ratio (z) = 0.08863 0.08863
#
# Static dielectric constant tensor:
#      x y z
#    x 1.521600 0.000000 0.000000 
#    y 0.000000 1.521600 0.000000 
#    z 0.000000 0.000000 1.584310 
# 
# From -- ./inp_files/3476.got.cif
#   From: 2010.05.17/outbox.cif.g08.bks.cpg/sg121_2_cif.got.tgz:3476.got - 2010.05.20 11:32:06.
