data_PCOD9560327
_publ_section_title
;
Structure prediction by ZEFSAII (Michael W. Deem and Ramdas Pophale) SiO2 
 PCOD9560327
Probable space group: I -4 2 M
;
_chemical_formula_sum "Si O2"
_cell_formula_units_Z 116
_cell_length_a 27.736907
_cell_length_b 27.736907
_cell_length_c 9.102889
_cell_angle_alpha 90.000000
_cell_angle_beta 90.000000
_cell_angle_gamma 90.000000
_cell_volume 7003.180302
_symmetry_space_group_name_H-M "I -4 2 M"
_symmetry_group_IT_number 121
_symmetry_cell_setting 'tetragonal'
loop_
_space_group_symop_operation_xyz
x,y,z
y,-x,-z
-x,-y,z
-y,x,-z
x,-y,-z
-x,y,-z
-y,-x,z
y,x,z
1/2+x,1/2+y,1/2+z
1/2+y,1/2-x,1/2-z
1/2-x,1/2-y,1/2+z
1/2-y,1/2+x,1/2-z
1/2+x,1/2-y,1/2-z
1/2-x,1/2+y,1/2-z
1/2-y,1/2-x,1/2+z
1/2+y,1/2+x,1/2+z
loop_
_atom_site_type_symbol
_atom_site_label
_atom_site_fract_x
_atom_site_fract_y
_atom_site_fract_z
Si Si1 0.781194 0.428205 0.731347
Si Si2 0.031067 0.679825 0.818074
Si Si3 0.293666 0.899142 0.552517
Si Si4 0.477567 0.094289 0.865097
Si Si5 0.500000 0.000000 0.750000
Si Si6 0.632515 0.901427 0.937713
Si Si7 0.764148 0.684935 0.747023
Si Si8 0.836051 0.244318 0.091538
O O1 0.786190 0.483780 0.675031
O O2 0.834803 0.406322 0.705902
O O3 0.746171 0.391939 0.641479
O O4 0.772202 0.421991 0.904939
O O5 0.061261 0.696652 0.677766
O O6 0.013873 0.626085 0.776900
O O7 0.068129 0.665116 0.947471
O O8 0.345773 0.874798 0.520351
O O9 0.263583 0.858512 0.637457
O O10 0.508587 0.046520 0.846298
O O11 0.422107 0.082891 0.900582
O O12 0.500000 0.123292 0.000000
O O13 0.716787 0.716787 0.766108
O O14 0.808010 0.720022 0.795503
O O15 0.764326 0.669192 0.575791
O O16 0.806336 0.193665 0.096641
#
# Coordination Sequence:
#
# PCOD9560327 Si02
#       8
#    16  16  16  16   4  16  16  16
#     4  12  22  34  52  71  98 128 164 212 260 321
#     4  11  23  37  50  69  94 129 170 210 260 315
#     4  11  21  35  53  73  98 128 167 212 260 310
#     4  11  22  35  47  60  83 114 155 208 258 321
#     4  12  22  32  44  58  76 104 142 198 260 308
#     4  11  22  35  50  66  88 121 163 206 263 309
#     4  10  20  35  55  78 102 127 159 203 259 322
#     4  10  21  35  53  78 102 128 161 204 264 328
#
# _framework density 16.563904000000001
#
# number of rings (size 3 to 8) (size 9 to 14) (size 15 to 20)
#    0.000    1.103    1.379    7.655    0.000    2.759 
#    0.000    0.000    0.000    0.000    0.000    0.000 
#    0.000    0.000    0.000    0.000    0.000    0.690 
#
# Total GULP energy -323324.956172 kJ/mol
# GULP energy per Si atom -5574.568210 kJ/mol
# Density = 1.652620 g / cm^3
# Si number density = 16.563904 Si / 1000 Ang^3
#
#
#
# Elastic Constant Matrix: (Units=GPa)
#
#
# Indices 1 2 3 4 5 6 
#
# 1 64.0252 40.1228 28.8994 0.0000 0.0000 0.0000
# 2 40.1228 64.0243 28.8994 0.0000 0.0000 0.0000
# 3 28.8994 28.8994 98.3556 0.0000 0.0000 0.0000
# 4 0.0000 0.0000 0.0000 21.7624 0.0000 0.0000
# 5 0.0000 0.0000 0.0000 0.0000 21.7624 0.0000
# 6 0.0000 0.0000 0.0000 0.0000 0.0000 30.3479
#
#
#
# Elastic Compliance Matrix: (Units=1/GPa)
#
#
# Indices 1 2 3 4 5 6 
#
# 1 0.026655 -0.015183 -0.003371 0.000000 0.000000 0.000000
# 2 -0.015183 0.026655 -0.003371 0.000000 0.000000 0.000000
# 3 -0.003371 -0.003371 0.012148 0.000000 0.000000 0.000000
# 4 0.000000 0.000000 0.000000 0.045951 0.000000 0.000000
# 5 0.000000 0.000000 0.000000 0.000000 0.045951 0.000000
# 6 0.000000 0.000000 0.000000 0.000000 0.000000 0.032951
#
#
# Mechanical properties :
#
#
# Convention : Reuss Voigt Hill
#
# Bulk Modulus (GPa) = 46.27600 46.91648 46.59624
# Shear Modulus (GPa) = 20.71570 23.34012 22.02791
#
# Velocity S-wave (km/s) = 3.54029 3.75786 3.65070
# Velocity P-wave (km/s) = 6.68656 6.87130 6.77956
#
# Compressibility (1/GPa) = 0.02160947
#
# Stress axis : x y z
#
# Youngs Moduli (GPa) = 37.51662 37.51604 82.31729
#
# Poissons Ratio (x) = 0.56959 0.27748
# Poissons Ratio (y) = 0.56960 0.27749
# Poissons Ratio (z) = 0.12646 0.12647
#
# Static dielectric constant tensor:
#      x y z
#    x 1.592710 0.000000 0.000000 
#    y 0.000000 1.592710 0.000000 
#    z 0.000000 0.000000 1.697600 
# 
# From -- ./inp_files/2182.got.cif
#   From: 2010.05.17/outbox.cif.g08.bks.cpg/sg121_2_cif.got.tgz:2182.got - 2010.05.20 11:32:06.
