data_PCOD9560584
_publ_section_title
;
Structure prediction by ZEFSAII (Michael W. Deem and Ramdas Pophale) SiO2 
 PCOD9560584
Probable space group: I -4 2 M
;
_chemical_formula_sum "Si O2"
_cell_formula_units_Z 96
_cell_length_a 26.060710
_cell_length_b 26.060710
_cell_length_c 8.687528
_cell_angle_alpha 90.000000
_cell_angle_beta 90.000000
_cell_angle_gamma 90.000000
_cell_volume 5900.226779
_symmetry_space_group_name_H-M "I -4 2 M"
_symmetry_group_IT_number 121
_symmetry_cell_setting 'tetragonal'
loop_
_space_group_symop_operation_xyz
x,y,z
y,-x,-z
-x,-y,z
-y,x,-z
x,-y,-z
-x,y,-z
-y,-x,z
y,x,z
1/2+x,1/2+y,1/2+z
1/2+y,1/2-x,1/2-z
1/2-x,1/2-y,1/2+z
1/2-y,1/2+x,1/2-z
1/2+x,1/2-y,1/2-z
1/2-x,1/2+y,1/2-z
1/2-y,1/2-x,1/2+z
1/2+y,1/2+x,1/2+z
loop_
_atom_site_type_symbol
_atom_site_label
_atom_site_fract_x
_atom_site_fract_y
_atom_site_fract_z
Si Si1 0.000001 0.812780 0.824088
Si Si2 0.609364 0.189985 0.183480
Si Si3 0.195571 0.888665 0.812746
Si Si4 0.195569 0.111334 0.812733
Si Si5 0.810014 0.390637 0.816526
Si Si6 0.688134 0.000000 0.823339
O O1 0.055748 0.825598 0.756844
O O2 0.000001 0.750515 0.826746
O O3 0.944254 0.825599 0.756838
O O4 0.000000 0.832058 0.000000
O O5 0.618726 0.247597 0.246344
O O6 0.651638 0.151637 0.250002
O O7 0.552630 0.173460 0.240087
O O8 0.611104 0.190423 0.000003
O O9 0.157040 0.842961 0.773193
O O10 0.199696 0.891311 0.000006
O O11 0.157037 0.157037 0.773179
O O12 0.252401 0.118725 0.746331
O O13 0.826539 0.447371 0.759917
O O14 0.670434 0.000000 0.000000
#
# Coordination Sequence:
#
# PCOD9560584 Si02
#       6
#    16  16  16  16  16  16
#     4   7  12  25  45  66  88 118 158 200 240 286
#     4  11  21  33  50  73 100 130 163 200 243 291
#     4   9  17  30  48  69  95 129 167 207 251 296
#     4   9  17  30  48  69  95 129 167 207 251 296
#     4  11  21  33  50  73 100 130 163 200 243 291
#     4   9  17  33  53  72  95 124 161 202 240 284
#
# _framework density 16.27056
#
# number of rings (size 3 to 8) (size 9 to 14) (size 15 to 20)
#    0.000    2.667    0.000    5.500    0.000    1.333 
#    0.000    0.000    0.000    1.000    0.000    7.000 
#    0.000    0.000    0.000   12.167    0.000   15.000 
#
# Total GULP energy -267317.003154 kJ/mol
# GULP energy per Si atom -5569.104232 kJ/mol
# Density = 1.623353 g / cm^3
# Si number density = 16.270560 Si / 1000 Ang^3
#
#
#
# Elastic Constant Matrix: (Units=GPa)
#
#
# Indices 1 2 3 4 5 6 
#
# 1 119.6592 85.2329 46.4290 0.0000 0.0000 0.0000
# 2 85.2329 119.6622 46.4297 0.0000 0.0000 0.0000
# 3 46.4290 46.4297 78.4829 0.0000 0.0000 0.0000
# 4 0.0000 0.0000 0.0000 20.0440 0.0000 0.0000
# 5 0.0000 0.0000 0.0000 0.0000 20.0440 0.0000
# 6 0.0000 0.0000 0.0000 0.0000 0.0000 -3.5229
#
#
#
# Elastic Compliance Matrix: (Units=1/GPa)
#
#
# Indices 1 2 3 4 5 6 
#
# 1 0.017858 -0.011189 -0.003945 0.000000 0.000000 0.000000
# 2 -0.011189 0.017857 -0.003945 0.000000 0.000000 0.000000
# 3 -0.003945 -0.003945 0.017409 0.000000 0.000000 0.000000
# 4 0.000000 0.000000 0.000000 0.049890 0.000000 0.000000
# 5 0.000000 0.000000 0.000000 0.000000 0.049890 0.000000
# 6 0.000000 0.000000 0.000000 0.000000 0.000000 -0.283857
#
#
# Mechanical properties :
#
#
# Convention : Reuss Voigt Hill
#
# Bulk Modulus (GPa) = 66.81698 74.88749 70.85223
# Shear Modulus (GPa) = -56.94353 16.62721 -20.15816
#
# Velocity S-wave (km/s) = -5.92232 3.20022 -3.52367
# Velocity P-wave (km/s) = 2.36851 7.73185 5.20440
#
# Compressibility (1/GPa) = 0.01496626
#
# Stress axis : x y z
#
# Youngs Moduli (GPa) = 55.99867 55.99995 57.44095
#
# Poissons Ratio (x) = 0.62658 0.22660
# Poissons Ratio (y) = 0.62656 0.22660
# Poissons Ratio (z) = 0.22091 0.22092
#
# Static dielectric constant tensor:
#      x y z
#    x 1.545190 0.000000 0.000000 
#    y 0.000000 1.545190 0.000000 
#    z 0.000000 0.000000 1.555480 
# 
# From -- ./inp_files/1926.got.cif
#   From: 2010.05.17/outbox.cif.g08.bks.cpg/sg121_1_cif.got.tgz:1926.got - 2010.05.20 11:32:06.
