data_PCOD9560764
_publ_section_title
;
Structure prediction by ZEFSAII (Michael W. Deem and Ramdas Pophale) SiO2 
 PCOD9560764
Probable space group: I -4 2 D
;
_chemical_formula_sum "Si O2"
_cell_formula_units_Z 56
_cell_length_a 23.028016
_cell_length_b 23.028016
_cell_length_c 5.311415
_cell_angle_alpha 90.000000
_cell_angle_beta 90.000000
_cell_angle_gamma 90.000000
_cell_volume 2816.587716
_symmetry_space_group_name_H-M "I -4 2 D"
_symmetry_group_IT_number 122
_symmetry_cell_setting 'tetragonal'
loop_
_space_group_symop_operation_xyz
x,y,z
y,-x,-z
-x,-y,z
-y,x,-z
x,1/2-y,1/4-z
-x,1/2+y,1/4-z
-y,1/2-x,1/4+z
y,1/2+x,1/4+z
1/2+x,1/2+y,1/2+z
1/2+y,1/2-x,1/2-z
1/2-x,1/2-y,1/2+z
1/2-y,1/2+x,1/2-z
1/2+x,-y,3/4-z
1/2-x,y,3/4-z
1/2-y,-x,3/4+z
1/2+y,x,3/4+z
loop_
_atom_site_type_symbol
_atom_site_label
_atom_site_fract_x
_atom_site_fract_y
_atom_site_fract_z
Si Si1 0.119147 0.250000 0.125000
Si Si2 0.250000 0.147987 0.875000
Si Si3 0.880810 0.121328 0.960752
Si Si4 0.750000 0.306182 0.875000
Si Si5 0.937358 0.073440 0.467888
O O1 0.095031 0.184828 0.074869
O O2 0.155605 0.242230 0.378864
O O3 0.309900 0.118963 0.785091
O O4 0.231120 0.192538 0.657492
O O5 0.912330 0.111929 0.695402
O O6 0.911315 0.090020 0.196716
O O7 0.006882 0.078034 0.466848
#
# Coordination Sequence:
#
# PCOD9560764 Si02
#       5
#     8   8  16   8  16
#     4  10  21  36  59  96 128 158 193 238 305 370
#     4  10  20  34  59  95 128 157 193 238 304 370
#     4  11  22  39  65  95 125 156 195 253 305 359
#     4  10  19  32  54  85 132 175 196 214 271 386
#     4  11  25  46  66  82 111 166 223 254 286 352
#
# _framework density 19.882213
#
# number of rings (size 3 to 8) (size 9 to 14) (size 15 to 20)
#    0.000    1.429    0.000    8.571    0.000    8.000 
#    0.000    8.571    0.000    0.000    0.000    0.000 
#    0.000    0.000    0.000    0.000    0.000    0.000 
#
# Total GULP energy -156091.213826 kJ/mol
# GULP energy per Si atom -5574.686208 kJ/mol
# Density = 1.983696 g / cm^3
# Si number density = 19.882213 Si / 1000 Ang^3
#
#
#
# Elastic Constant Matrix: (Units=GPa)
#
#
# Indices 1 2 3 4 5 6 
#
# 1 49.5875 18.5641 0.4042 0.0000 0.0000 0.0000
# 2 18.5641 49.5875 0.4042 0.0000 0.0000 0.0000
# 3 0.4042 0.4042 111.0258 0.0000 0.0000 0.0000
# 4 0.0000 0.0000 0.0000 -5.5064 0.0000 0.0000
# 5 0.0000 0.0000 0.0000 0.0000 -5.5064 0.0000
# 6 0.0000 0.0000 0.0000 0.0000 0.0000 97.6219
#
#
#
# Elastic Compliance Matrix: (Units=1/GPa)
#
#
# Indices 1 2 3 4 5 6 
#
# 1 0.023454 -0.008780 -0.000053 0.000000 0.000000 0.000000
# 2 -0.008780 0.023454 -0.000053 0.000000 0.000000 0.000000
# 3 -0.000053 -0.000053 0.009007 0.000000 0.000000 0.000000
# 4 0.000000 0.000000 0.000000 -0.181605 0.000000 0.000000
# 5 0.000000 0.000000 0.000000 0.000000 -0.181605 0.000000
# 6 0.000000 0.000000 0.000000 0.000000 0.000000 0.010244
#
#
# Mechanical properties :
#
#
# Convention : Reuss Voigt Hill
#
# Bulk Modulus (GPa) = 26.21834 27.66063 26.93948
# Shear Modulus (GPa) = -18.75715 30.04369 5.64327
#
# Velocity S-wave (km/s) = -3.07484 3.89148 1.68657
# Velocity P-wave (km/s) = 0.78058 5.84243 4.16793
#
# Compressibility (1/GPa) = 0.03814124
#
# Stress axis : x y z
#
# Youngs Moduli (GPa) = 42.63708 42.63708 111.02100
#
# Poissons Ratio (x) = 0.37435 0.00593
# Poissons Ratio (y) = 0.37435 0.00593
# Poissons Ratio (z) = 0.00228 0.00228
#
# Static dielectric constant tensor:
#      x y z
#    x 1.753870 0.000000 0.000000 
#    y 0.000000 1.753870 0.000000 
#    z 0.000000 0.000000 0.404890 
# 
# From -- ./inp_files/869.got.cif
#   From: 2010.05.17/outbox.cif.g08.bks.cpg/sg122_1_cif.got.tgz:869.got - 2010.05.20 11:37:33.
