data_PCOD9560963
_publ_section_title
;
Structure prediction by ZEFSAII (Michael W. Deem and Ramdas Pophale) SiO2 
 PCOD9560963
Probable space group: I -4 2 D
;
_chemical_formula_sum "Si O2"
_cell_formula_units_Z 64
_cell_length_a 11.042249
_cell_length_b 11.042249
_cell_length_c 25.047364
_cell_angle_alpha 90.000000
_cell_angle_beta 90.000000
_cell_angle_gamma 90.000000
_cell_volume 3054.056727
_symmetry_space_group_name_H-M "I -4 2 D"
_symmetry_group_IT_number 122
_symmetry_cell_setting 'tetragonal'
loop_
_space_group_symop_operation_xyz
x,y,z
y,-x,-z
-x,-y,z
-y,x,-z
x,1/2-y,1/4-z
-x,1/2+y,1/4-z
-y,1/2-x,1/4+z
y,1/2+x,1/4+z
1/2+x,1/2+y,1/2+z
1/2+y,1/2-x,1/2-z
1/2-x,1/2-y,1/2+z
1/2-y,1/2+x,1/2-z
1/2+x,-y,3/4-z
1/2-x,y,3/4-z
1/2-y,-x,3/4+z
1/2+y,x,3/4+z
loop_
_atom_site_type_symbol
_atom_site_label
_atom_site_fract_x
_atom_site_fract_y
_atom_site_fract_z
Si Si1 0.818739 0.415481 0.568131
Si Si2 0.546876 0.135506 0.877966
Si Si3 0.572221 0.815546 0.069182
Si Si4 0.188787 0.252136 0.038467
O O1 0.726652 0.434824 0.617005
O O2 0.885205 0.545403 0.567729
O O3 0.743482 0.388541 0.514925
O O4 0.927395 0.318037 0.566238
O O5 0.621560 0.161992 0.931656
O O6 0.644305 0.153836 0.829643
O O7 0.500000 0.000000 0.878550
O O8 0.603333 0.750000 0.125000
O O9 0.666235 0.754915 0.028167
#
# Coordination Sequence:
#
# PCOD9560963 Si02
#       4
#    16  16  16  16
#     4  10  22  38  67  91 122 180 223 273 347 413
#     4  10  22  39  63  95 134 169 211 283 347 409
#     4  10  20  44  61  84 129 175 221 277 341 414
#     4  10  21  42  61  91 132 167 218 283 334 407
#
# _framework density 20.955735000000001
#
# number of rings (size 3 to 8) (size 9 to 14) (size 15 to 20)
#    0.000    2.000    5.000    0.000   10.500    0.000 
#    9.000    0.000    0.000    0.000    0.000    0.000 
#    0.000    0.000    0.000    0.000    0.000    0.000 
#
# Total GULP energy -178162.810099 kJ/mol
# GULP energy per Si atom -5567.587816 kJ/mol
# Density = 2.090804 g / cm^3
# Si number density = 20.955735 Si / 1000 Ang^3
#
#
#
# Elastic Constant Matrix: (Units=GPa)
#
#
# Indices 1 2 3 4 5 6 
#
# 1 106.9742 27.5705 9.1851 0.0000 0.0000 0.0000
# 2 27.5705 106.9742 9.1851 0.0000 0.0000 0.0000
# 3 9.1851 9.1851 31.1716 0.0000 0.0000 0.0000
# 4 0.0000 0.0000 0.0000 21.0835 0.0000 0.0000
# 5 0.0000 0.0000 0.0000 0.0000 21.0835 0.0000
# 6 0.0000 0.0000 0.0000 0.0000 0.0000 37.3251
#
#
#
# Elastic Compliance Matrix: (Units=1/GPa)
#
#
# Indices 1 2 3 4 5 6 
#
# 1 0.010169 -0.002425 -0.002282 0.000000 0.000000 0.000000
# 2 -0.002425 0.010169 -0.002282 0.000000 0.000000 0.000000
# 3 -0.002282 -0.002282 0.033425 0.000000 0.000000 0.000000
# 4 0.000000 0.000000 0.000000 0.047430 0.000000 0.000000
# 5 0.000000 0.000000 0.000000 0.000000 0.047430 0.000000
# 6 0.000000 0.000000 0.000000 0.000000 0.000000 0.026792
#
#
# Mechanical properties :
#
#
# Convention : Reuss Voigt Hill
#
# Bulk Modulus (GPa) = 25.13461 37.44462 31.28962
# Shear Modulus (GPa) = 24.67249 29.17704 26.92477
#
# Velocity S-wave (km/s) = 3.43499 3.73543 3.58836
# Velocity P-wave (km/s) = 5.26806 6.04250 5.66852
#
# Compressibility (1/GPa) = 0.03978577
#
# Stress axis : x y z
#
# Youngs Moduli (GPa) = 98.33853 98.33853 29.91751
#
# Poissons Ratio (x) = 0.23846 0.06827
# Poissons Ratio (y) = 0.23846 0.06827
# Poissons Ratio (z) = 0.22440 0.22440
#
# Static dielectric constant tensor:
#      x y z
#    x 1.812250 0.000000 0.000000 
#    y 0.000000 1.812250 0.000000 
#    z 0.000000 0.000000 1.739280 
# 
# From -- ./inp_files/9207.got.cif
#   From: 2010.05.17/outbox.cif.g08.bks.cpg/sg122_5_cif.got.tgz:9207.got - 2010.05.20 11:37:33.
