data_PCOD9560767
_publ_section_title
;
Structure prediction by ZEFSAII (Michael W. Deem and Ramdas Pophale) SiO2 
 PCOD9560767
Probable space group: I -4 2 D
;
_chemical_formula_sum "Si O2"
_cell_formula_units_Z 88
_cell_length_a 18.724670
_cell_length_b 18.724670
_cell_length_c 11.846156
_cell_angle_alpha 90.000000
_cell_angle_beta 90.000000
_cell_angle_gamma 90.000000
_cell_volume 4153.419452
_symmetry_space_group_name_H-M "I -4 2 D"
_symmetry_group_IT_number 122
_symmetry_cell_setting 'tetragonal'
loop_
_space_group_symop_operation_xyz
x,y,z
y,-x,-z
-x,-y,z
-y,x,-z
x,1/2-y,1/4-z
-x,1/2+y,1/4-z
-y,1/2-x,1/4+z
y,1/2+x,1/4+z
1/2+x,1/2+y,1/2+z
1/2+y,1/2-x,1/2-z
1/2-x,1/2-y,1/2+z
1/2-y,1/2+x,1/2-z
1/2+x,-y,3/4-z
1/2-x,y,3/4-z
1/2-y,-x,3/4+z
1/2+y,x,3/4+z
loop_
_atom_site_type_symbol
_atom_site_label
_atom_site_fract_x
_atom_site_fract_y
_atom_site_fract_z
Si Si1 0.500000 0.000000 0.055141
Si Si2 0.292975 0.250000 0.625000
Si Si3 0.769450 0.140026 0.636498
Si Si4 0.154580 0.833319 0.288632
Si Si5 0.503835 0.845715 0.076076
Si Si6 0.845818 0.507037 0.658048
Si Si7 0.250000 0.112355 0.375000
O O1 0.572640 0.007939 0.123817
O O2 0.504190 0.919520 0.004996
O O3 0.340749 0.270072 0.732007
O O4 0.237542 0.189033 0.660906
O O5 0.692469 0.160208 0.584306
O O6 0.831482 0.190241 0.582290
O O7 0.793997 0.059618 0.614006
O O8 0.072301 0.826949 0.324657
O O9 0.175608 0.913005 0.333365
O O10 0.442547 0.789967 0.038772
O O11 0.480894 0.852462 0.207634
#
# Coordination Sequence:
#
# PCOD9560767 Si02
#       7
#     8   8  16  16  16  16   8
#     4  10  19  32  56  90 131 162 201 260 324 394
#     4  12  23  44  63  94 126 174 224 290 329 412
#     4  12  25  42  65  94 130 176 227 280 351 406
#     4  11  24  41  67  96 135 171 225 280 345 413
#     4  11  21  35  61  95 129 169 207 270 338 406
#     4  11  22  39  60  94 131 171 216 267 339 408
#     4  12  21  36  63  90 130 156 218 270 335 402
#
# _framework density 21.187362
#
# number of rings (size 3 to 8) (size 9 to 14) (size 15 to 20)
#    0.000    0.727    3.636    6.545    0.000    0.000 
#    3.273    0.000    0.000    0.000    0.000    1.273 
#    0.000    0.000    0.000    0.000    0.000    0.000 
#
# Total GULP energy -245022.392342 kJ/mol
# GULP energy per Si atom -5568.690735 kJ/mol
# Density = 2.113914 g / cm^3
# Si number density = 21.187362 Si / 1000 Ang^3
#
#
#
# Elastic Constant Matrix: (Units=GPa)
#
#
# Indices 1 2 3 4 5 6 
#
# 1 120.8557 28.3729 22.5018 0.0000 0.0000 0.0000
# 2 28.3729 120.8557 22.5018 0.0000 0.0000 0.0000
# 3 22.5018 22.5018 73.1756 0.0000 0.0000 0.0000
# 4 0.0000 0.0000 0.0000 20.1391 0.0000 0.0000
# 5 0.0000 0.0000 0.0000 0.0000 20.1391 0.0000
# 6 0.0000 0.0000 0.0000 0.0000 0.0000 31.2435
#
#
#
# Elastic Compliance Matrix: (Units=1/GPa)
#
#
# Indices 1 2 3 4 5 6 
#
# 1 0.009099 -0.001713 -0.002271 0.000000 0.000000 0.000000
# 2 -0.001713 0.009099 -0.002271 0.000000 0.000000 0.000000
# 3 -0.002271 -0.002271 0.015063 0.000000 0.000000 0.000000
# 4 0.000000 0.000000 0.000000 0.049655 0.000000 0.000000
# 5 0.000000 0.000000 0.000000 0.000000 0.049655 0.000000
# 6 0.000000 0.000000 0.000000 0.000000 0.000000 0.032007
#
#
# Mechanical properties :
#
#
# Convention : Reuss Voigt Hill
#
# Bulk Modulus (GPa) = 48.19335 51.29335 49.74335
# Shear Modulus (GPa) = 27.17305 30.40503 28.78904
#
# Velocity S-wave (km/s) = 3.58510 3.79232 3.69017
# Velocity P-wave (km/s) = 6.31925 6.59072 6.45641
#
# Compressibility (1/GPa) = 0.02074975
#
# Stress axis : x y z
#
# Youngs Moduli (GPa) = 109.89671 109.89671 66.38959
#
# Poissons Ratio (x) = 0.18829 0.15079
# Poissons Ratio (y) = 0.18829 0.15079
# Poissons Ratio (z) = 0.24960 0.24960
#
# Static dielectric constant tensor:
#      x y z
#    x 1.880150 0.000000 0.000000 
#    y 0.000000 1.880150 0.000000 
#    z 0.000000 0.000000 1.794490 
# 
# From -- ./inp_files/5417.got.cif
#   From: 2010.05.17/outbox.cif.g08.bks.cpg/sg122_3_cif.got.tgz:5417.got - 2010.05.20 11:37:33.
