data_PCOD9560910
_publ_section_title
;
Structure prediction by ZEFSAII (Michael W. Deem and Ramdas Pophale) SiO2 
 PCOD9560910
Probable space group: I -4 2 D
;
_chemical_formula_sum "Si O2"
_cell_formula_units_Z 112
_cell_length_a 14.606387
_cell_length_b 14.606387
_cell_length_c 24.563139
_cell_angle_alpha 90.000000
_cell_angle_beta 90.000000
_cell_angle_gamma 90.000000
_cell_volume 5240.460747
_symmetry_space_group_name_H-M "I -4 2 D"
_symmetry_group_IT_number 122
_symmetry_cell_setting 'tetragonal'
loop_
_space_group_symop_operation_xyz
x,y,z
y,-x,-z
-x,-y,z
-y,x,-z
x,1/2-y,1/4-z
-x,1/2+y,1/4-z
-y,1/2-x,1/4+z
y,1/2+x,1/4+z
1/2+x,1/2+y,1/2+z
1/2+y,1/2-x,1/2-z
1/2-x,1/2-y,1/2+z
1/2-y,1/2+x,1/2-z
1/2+x,-y,3/4-z
1/2-x,y,3/4-z
1/2-y,-x,3/4+z
1/2+y,x,3/4+z
loop_
_atom_site_type_symbol
_atom_site_label
_atom_site_fract_x
_atom_site_fract_y
_atom_site_fract_z
Si Si1 0.016570 0.901773 0.365970
Si Si2 0.907794 0.854986 0.101141
Si Si3 0.216308 0.846736 0.649626
Si Si4 0.280462 0.227942 0.734913
Si Si5 0.931625 0.275603 0.436832
Si Si6 0.858040 0.906694 0.860895
Si Si7 0.411482 0.371188 0.246611
O O1 0.051794 0.822361 0.406961
O O2 0.076676 0.918754 0.311164
O O3 0.918851 0.863587 0.346886
O O4 0.000000 0.000000 0.393402
O O5 0.912235 0.750000 0.125000
O O6 0.844101 0.840813 0.049185
O O7 0.854770 0.922129 0.141401
O O8 0.012695 0.887477 0.098558
O O9 0.185609 0.750000 0.625000
O O10 0.259916 0.826801 0.707352
O O11 0.301202 0.888389 0.615488
O O12 0.273075 0.328611 0.709914
O O13 0.178674 0.190318 0.740314
O O14 0.001542 0.310727 0.483750
O O15 0.750000 0.896941 0.875000
O O16 0.884473 0.935078 0.799079
#
# Coordination Sequence:
#
# PCOD9560910 Si02
#       7
#    16  16  16  16  16  16  16
#     4  12  27  45  69 104 140 187 250 302 358 447
#     4   9  21  38  65  96 130 173 224 283 354 423
#     4  11  22  44  69 101 144 186 233 291 365 437
#     4  11  22  43  69  97 135 185 228 288 364 424
#     4  11  24  46  66  99 138 183 237 299 356 426
#     4  10  20  38  66  97 136 179 220 286 359 428
#     4  12  24  43  70 102 137 180 240 293 361 438
#
# _framework density 21.372167000000001
#
# number of rings (size 3 to 8) (size 9 to 14) (size 15 to 20)
#    0.000    1.143    5.714    0.857    8.000    0.000 
#    7.714    0.000    0.000    0.000    0.000    0.000 
#    0.000    0.000    0.000    0.000    0.000    0.000 
#
# Total GULP energy -312420.434071 kJ/mol
# GULP energy per Si atom -5578.936323 kJ/mol
# Density = 2.132352 g / cm^3
# Si number density = 21.372167 Si / 1000 Ang^3
#
#
#
# Elastic Constant Matrix: (Units=GPa)
#
#
# Indices 1 2 3 4 5 6 
#
# 1 112.8808 30.8724 23.1929 0.0000 0.0000 0.0000
# 2 30.8724 112.8808 23.1929 0.0000 0.0000 0.0000
# 3 23.1929 23.1929 74.6308 0.0000 0.0000 0.0000
# 4 0.0000 0.0000 0.0000 32.1153 0.0000 0.0000
# 5 0.0000 0.0000 0.0000 0.0000 32.1153 0.0000
# 6 0.0000 0.0000 0.0000 0.0000 0.0000 26.3350
#
#
#
# Elastic Compliance Matrix: (Units=1/GPa)
#
#
# Indices 1 2 3 4 5 6 
#
# 1 0.009963 -0.002231 -0.002403 0.000000 0.000000 0.000000
# 2 -0.002231 0.009963 -0.002403 0.000000 0.000000 0.000000
# 3 -0.002403 -0.002403 0.014893 0.000000 0.000000 0.000000
# 4 0.000000 0.000000 0.000000 0.031138 0.000000 0.000000
# 5 0.000000 0.000000 0.000000 0.000000 0.031138 0.000000
# 6 0.000000 0.000000 0.000000 0.000000 0.000000 0.037972
#
#
# Mechanical properties :
#
#
# Convention : Reuss Voigt Hill
#
# Bulk Modulus (GPa) = 48.20436 50.54542 49.37489
# Shear Modulus (GPa) = 32.04012 32.98873 32.51443
#
# Velocity S-wave (km/s) = 3.87609 3.93305 3.90467
# Velocity P-wave (km/s) = 6.52961 6.65782 6.59403
#
# Compressibility (1/GPa) = 0.02074501
#
# Stress axis : x y z
#
# Youngs Moduli (GPa) = 100.37356 100.37356 67.14700
#
# Poissons Ratio (x) = 0.22394 0.16134
# Poissons Ratio (y) = 0.22394 0.16134
# Poissons Ratio (z) = 0.24117 0.24117
#
# Static dielectric constant tensor:
#      x y z
#    x 1.980850 0.000000 0.000000 
#    y 0.000000 1.980850 0.000000 
#    z 0.000000 0.000000 1.826440 
# 
# From -- ./inp_files/8146.got.cif
#   From: 2010.05.17/outbox.cif.g08.bks.cpg/sg122_5_cif.got.tgz:8146.got - 2010.05.20 11:37:33.
