data_PCOD9560818
_publ_section_title
;
Structure prediction by ZEFSAII (Michael W. Deem and Ramdas Pophale) SiO2 
 PCOD9560818
Probable space group: I -4 2 D
;
_chemical_formula_sum "Si O2"
_cell_formula_units_Z 112
_cell_length_a 15.509764
_cell_length_b 15.509764
_cell_length_c 24.829660
_cell_angle_alpha 90.000000
_cell_angle_beta 90.000000
_cell_angle_gamma 90.000000
_cell_volume 5972.843723
_symmetry_space_group_name_H-M "I -4 2 D"
_symmetry_group_IT_number 122
_symmetry_cell_setting 'tetragonal'
loop_
_space_group_symop_operation_xyz
x,y,z
y,-x,-z
-x,-y,z
-y,x,-z
x,1/2-y,1/4-z
-x,1/2+y,1/4-z
-y,1/2-x,1/4+z
y,1/2+x,1/4+z
1/2+x,1/2+y,1/2+z
1/2+y,1/2-x,1/2-z
1/2-x,1/2-y,1/2+z
1/2-y,1/2+x,1/2-z
1/2+x,-y,3/4-z
1/2-x,y,3/4-z
1/2-y,-x,3/4+z
1/2+y,x,3/4+z
loop_
_atom_site_type_symbol
_atom_site_label
_atom_site_fract_x
_atom_site_fract_y
_atom_site_fract_z
Si Si1 0.599133 0.590462 0.980729
Si Si2 0.267029 0.497304 0.439629
Si Si3 0.345636 0.719044 0.269525
Si Si4 0.159040 0.673125 0.263998
Si Si5 0.342110 0.788755 0.381072
Si Si6 0.908539 0.046575 0.748980
Si Si7 0.511375 0.602192 0.873726
O O1 0.577528 0.623823 0.921058
O O2 0.609269 0.486741 0.984393
O O3 0.685338 0.631682 0.002521
O O4 0.250000 0.491087 0.375000
O O5 0.310817 0.413728 0.468718
O O6 0.327228 0.579094 0.457921
O O7 0.171334 0.512832 0.465222
O O8 0.255382 0.692844 0.242669
O O9 0.334241 0.717668 0.334099
O O10 0.417624 0.648820 0.257392
O O11 0.144231 0.743083 0.311742
O O12 0.250000 0.836148 0.375000
O O13 0.421796 0.849183 0.367867
O O14 0.880336 0.037249 0.687126
O O15 0.000000 0.000000 0.757988
O O16 0.500000 0.500000 0.877844
#
# Coordination Sequence:
#
# PCOD9560818 Si02
#       7
#    16  16  16  16  16  16  16
#     4  11  20  36  57  86 126 159 206 254 306 374
#     4  11  23  47  68  96 132 168 222 283 334 412
#     4  10  21  39  62  91 119 165 213 259 318 394
#     4  10  22  42  67  91 125 163 216 272 334 390
#     4  10  19  39  67  86 115 169 216 255 313 394
#     4  10  23  42  60  90 126 162 209 264 327 383
#     4  11  20  38  56  85 128 161 198 261 309 364
#
# _framework density 18.751536000000002
#
# number of rings (size 3 to 8) (size 9 to 14) (size 15 to 20)
#    0.000    1.571    4.286    2.143    0.000    2.000 
#   18.000    0.000    0.000    0.000    0.000    0.000 
#    0.000    0.000    0.000    0.000    0.000    0.000 
#
# Total GULP energy -311995.389369 kJ/mol
# GULP energy per Si atom -5571.346239 kJ/mol
# Density = 1.870886 g / cm^3
# Si number density = 18.751536 Si / 1000 Ang^3
#
#
#
# Elastic Constant Matrix: (Units=GPa)
#
#
# Indices 1 2 3 4 5 6 
#
# 1 78.3921 50.6654 36.0695 0.0000 0.0000 0.0000
# 2 50.6654 78.3921 36.0695 0.0000 0.0000 0.0000
# 3 36.0695 36.0695 135.3951 0.0000 0.0000 0.0000
# 4 0.0000 0.0000 0.0000 25.0386 0.0000 0.0000
# 5 0.0000 0.0000 0.0000 0.0000 25.0386 0.0000
# 6 0.0000 0.0000 0.0000 0.0000 0.0000 25.7291
#
#
#
# Elastic Compliance Matrix: (Units=1/GPa)
#
#
# Indices 1 2 3 4 5 6 
#
# 1 0.022585 -0.013481 -0.002425 0.000000 0.000000 0.000000
# 2 -0.013481 0.022585 -0.002425 0.000000 0.000000 0.000000
# 3 -0.002425 -0.002425 0.008678 0.000000 0.000000 0.000000
# 4 0.000000 0.000000 0.000000 0.039938 0.000000 0.000000
# 5 0.000000 0.000000 0.000000 0.000000 0.039938 0.000000
# 6 0.000000 0.000000 0.000000 0.000000 0.000000 0.038867
#
#
# Mechanical properties :
#
#
# Convention : Reuss Voigt Hill
#
# Bulk Modulus (GPa) = 58.19050 59.75421 58.97235
# Shear Modulus (GPa) = 23.25759 26.45293 24.85526
#
# Velocity S-wave (km/s) = 3.52561 3.76001 3.64470
# Velocity P-wave (km/s) = 6.90457 7.12641 7.01637
#
# Compressibility (1/GPa) = 0.01718494
#
# Stress axis : x y z
#
# Youngs Moduli (GPa) = 44.27666 44.27666 115.23346
#
# Poissons Ratio (x) = 0.59690 0.27948
# Poissons Ratio (y) = 0.59690 0.27948
# Poissons Ratio (z) = 0.10739 0.10739
#
# Static dielectric constant tensor:
#      x y z
#    x 1.668130 0.000000 0.000000 
#    y 0.000000 1.668130 0.000000 
#    z 0.000000 0.000000 1.726260 
# 
# From -- ./inp_files/8107.got.cif
#   From: 2010.05.17/outbox.cif.g08.bks.cpg/sg122_5_cif.got.tgz:8107.got - 2010.05.20 11:37:33.
