data_PCOD9560001
_publ_section_title
;
Structure prediction by ZEFSAII (Michael W. Deem and Ramdas Pophale) SiO2 
 PCOD9560001
Probable space group: I -4 C 2
;
_chemical_formula_sum "Si O2"
_cell_formula_units_Z 64
_cell_length_a 10.683265
_cell_length_b 10.683265
_cell_length_c 23.640438
_cell_angle_alpha 90.000000
_cell_angle_beta 90.000000
_cell_angle_gamma 90.000000
_cell_volume 2698.134041
_symmetry_space_group_name_H-M "I -4 C 2"
_symmetry_group_IT_number 120
_symmetry_cell_setting 'tetragonal'
loop_
_space_group_symop_operation_xyz
x,y,z
y,-x,-z
-x,-y,z
-y,x,-z
y,x,1/2-z
-y,-x,1/2-z
-x,y,1/2+z
x,-y,1/2+z
1/2+x,1/2+y,1/2+z
1/2+y,1/2-x,1/2-z
1/2-x,1/2-y,1/2+z
1/2-y,1/2+x,1/2-z
1/2+y,1/2+x,-z
1/2-y,1/2-x,-z
1/2-x,1/2+y,z
1/2+x,1/2-y,z
loop_
_atom_site_type_symbol
_atom_site_label
_atom_site_fract_x
_atom_site_fract_y
_atom_site_fract_z
Si Si1 0.644590 0.960915 0.152860
Si Si2 0.432913 0.634602 0.572454
Si Si3 0.681802 0.334632 0.813651
Si Si4 0.301515 0.977266 0.031056
O O1 0.688166 0.832830 0.183987
O O2 0.500000 0.000000 0.162545
O O3 0.726223 0.082064 0.169958
O O4 0.663480 0.937688 0.084832
O O5 0.500000 0.500000 0.567168
O O6 0.442870 0.670865 0.638199
O O7 0.285680 0.625817 0.560243
O O8 0.476237 0.719662 0.521265
O O9 0.639008 0.360993 0.750000
O O10 0.414754 0.914754 0.000000
#
# Coordination Sequence:
#
# PCOD9560001 Si02
#       4
#    16  16  16  16
#     4  11  28  51  79 113 158 210 265 340 412 491
#     4  11  23  45  72 104 154 199 251 331 397 479
#     4  11  29  49  78 111 152 215 273 333 405 483
#     4  11  23  40  72 108 147 193 248 317 411 477
#
# _framework density 23.720098
#
# number of rings (size 3 to 8) (size 9 to 14) (size 15 to 20)
#    0.000    1.000    2.500    1.500   10.500    7.000 
#    0.000    0.000    0.000    0.000    0.000    0.000 
#    0.000    0.000    0.000    0.000    0.000    0.000 
#
# Total GULP energy -178436.019186 kJ/mol
# GULP energy per Si atom -5576.125600 kJ/mol
# Density = 2.366611 g / cm^3
# Si number density = 23.720098 Si / 1000 Ang^3
#
#
#
# Elastic Constant Matrix: (Units=GPa)
#
#
# Indices 1 2 3 4 5 6 
#
# 1 61.8024 37.9219 7.6921 0.0000 0.0000 0.0000
# 2 37.9219 61.8015 7.6911 0.0000 0.0000 0.0000
# 3 7.6921 7.6911 160.4171 0.0000 0.0000 0.0000
# 4 0.0000 0.0000 0.0000 45.7639 0.0000 0.0000
# 5 0.0000 0.0000 0.0000 0.0000 45.7631 0.0000
# 6 0.0000 0.0000 0.0000 0.0000 0.0000 26.8195
#
#
#
# Elastic Compliance Matrix: (Units=1/GPa)
#
#
# Indices 1 2 3 4 5 6 
#
# 1 0.025989 -0.015887 -0.000485 0.000000 0.000000 0.000000
# 2 -0.015887 0.025989 -0.000484 0.000000 0.000000 0.000000
# 3 -0.000485 -0.000484 0.006280 0.000000 0.000000 0.000000
# 4 0.000000 0.000000 0.000000 0.021851 0.000000 0.000000
# 5 0.000000 0.000000 0.000000 0.000000 0.021852 0.000000
# 6 0.000000 0.000000 0.000000 0.000000 0.000000 0.037286
#
#
# Mechanical properties :
#
#
# Convention : Reuss Voigt Hill
#
# Bulk Modulus (GPa) = 40.73739 43.40347 42.07043
# Shear Modulus (GPa) = 27.60272 39.05036 33.32654
#
# Velocity S-wave (km/s) = 3.41498 4.06186 3.75239
# Velocity P-wave (km/s) = 5.72372 6.35108 6.04554
#
# Compressibility (1/GPa) = 0.02454747
#
# Stress axis : x y z
#
# Youngs Moduli (GPa) = 38.47777 38.47721 159.23060
#
# Poissons Ratio (x) = 0.61128 0.07715
# Poissons Ratio (y) = 0.61129 0.07711
# Poissons Ratio (z) = 0.01864 0.01863
#
# Static dielectric constant tensor:
#      x y z
#    x 1.927630 0.000000 0.000000 
#    y 0.000000 1.927630 0.000000 
#    z 0.000000 0.000000 2.015950 
# 
# From -- ./inp_files/5678.got.cif
#   From: 2010.05.17/outbox.cif.g08.bks.cpg/sg120_3_cif.got.tgz:5678.got - 2010.05.20 11:28:13.
