data_PCOD9560923
_publ_section_title
;
Structure prediction by ZEFSAII (Michael W. Deem and Ramdas Pophale) SiO2 
 PCOD9560923
Probable space group: I -4 2 D
;
_chemical_formula_sum "Si O2"
_cell_formula_units_Z 72
_cell_length_a 21.091210
_cell_length_b 21.091210
_cell_length_c 7.506314
_cell_angle_alpha 90.000000
_cell_angle_beta 90.000000
_cell_angle_gamma 90.000000
_cell_volume 3339.102259
_symmetry_space_group_name_H-M "I -4 2 D"
_symmetry_group_IT_number 122
_symmetry_cell_setting 'tetragonal'
loop_
_space_group_symop_operation_xyz
x,y,z
y,-x,-z
-x,-y,z
-y,x,-z
x,1/2-y,1/4-z
-x,1/2+y,1/4-z
-y,1/2-x,1/4+z
y,1/2+x,1/4+z
1/2+x,1/2+y,1/2+z
1/2+y,1/2-x,1/2-z
1/2-x,1/2-y,1/2+z
1/2-y,1/2+x,1/2-z
1/2+x,-y,3/4-z
1/2-x,y,3/4-z
1/2-y,-x,3/4+z
1/2+y,x,3/4+z
loop_
_atom_site_type_symbol
_atom_site_label
_atom_site_fract_x
_atom_site_fract_y
_atom_site_fract_z
Si Si1 0.778546 0.139717 0.072329
Si Si2 0.692604 0.250000 0.125000
Si Si3 0.982191 0.697255 0.503445
Si Si4 0.590052 0.052820 0.226436
Si Si5 0.109676 0.846695 0.845055
O O1 0.742379 0.194568 0.178369
O O2 0.765469 0.071999 0.152587
O O3 0.750000 0.142720 0.875000
O O4 0.853410 0.141820 0.029252
O O5 0.646530 0.285612 0.263078
O O6 0.015491 0.750000 0.625000
O O7 0.948438 0.644351 0.624475
O O8 0.035733 0.667284 0.380528
O O9 0.522796 0.078564 0.304408
O O10 0.609367 0.096444 0.055209
#
# Coordination Sequence:
#
# PCOD9560923 Si02
#       5
#    16   8  16  16  16
#     4  10  23  39  59  86 121 158 198 251 306 361
#     4  10  20  40  58  80 120 160 194 246 304 350
#     4  11  21  38  62  89 117 159 203 248 306 362
#     4   9  20  38  61  87 119 158 199 246 302 366
#     4  10  21  39  61  89 122 154 203 254 297 369
#
# _framework density 21.56268
#
# number of rings (size 3 to 8) (size 9 to 14) (size 15 to 20)
#    0.000    2.000    1.111    2.667    0.000    9.778 
#    2.000    0.000    0.000    0.000    0.000    0.000 
#    0.000    0.000    0.000    0.000    0.000    0.000 
#
# Total GULP energy -200432.744637 kJ/mol
# GULP energy per Si atom -5567.576240 kJ/mol
# Density = 2.151360 g / cm^3
# Si number density = 21.562680 Si / 1000 Ang^3
#
#
#
# Elastic Constant Matrix: (Units=GPa)
#
#
# Indices 1 2 3 4 5 6 
#
# 1 108.7608 29.1055 22.6139 0.0000 0.0000 0.0000
# 2 29.1055 108.7608 22.6139 0.0000 0.0000 0.0000
# 3 22.6139 22.6139 31.2866 0.0000 0.0000 0.0000
# 4 0.0000 0.0000 0.0000 11.4571 0.0000 0.0000
# 5 0.0000 0.0000 0.0000 0.0000 11.4571 0.0000
# 6 0.0000 0.0000 0.0000 0.0000 0.0000 31.9194
#
#
#
# Elastic Compliance Matrix: (Units=1/GPa)
#
#
# Indices 1 2 3 4 5 6 
#
# 1 0.011031 -0.001523 -0.006872 0.000000 0.000000 0.000000
# 2 -0.001523 0.011031 -0.006872 0.000000 0.000000 0.000000
# 3 -0.006872 -0.006872 0.041897 0.000000 0.000000 0.000000
# 4 0.000000 0.000000 0.000000 0.087282 0.000000 0.000000
# 5 0.000000 0.000000 0.000000 0.000000 0.087282 0.000000
# 6 0.000000 0.000000 0.000000 0.000000 0.000000 0.031329
#
#
# Mechanical properties :
#
#
# Convention : Reuss Voigt Hill
#
# Bulk Modulus (GPa) = 29.91885 44.16387 37.04136
# Shear Modulus (GPa) = 16.04987 22.59838 19.32412
#
# Velocity S-wave (km/s) = 2.73121 3.24084 2.99688
# Velocity P-wave (km/s) = 4.88379 5.87624 5.40285
#
# Compressibility (1/GPa) = 0.03342375
#
# Stress axis : x y z
#
# Youngs Moduli (GPa) = 90.65368 90.65368 23.86799
#
# Poissons Ratio (x) = 0.13807 0.16403
# Poissons Ratio (y) = 0.13807 0.16403
# Poissons Ratio (z) = 0.62300 0.62300
#
# Static dielectric constant tensor:
#      x y z
#    x 1.848540 0.000000 0.000000 
#    y 0.000000 1.848540 0.000000 
#    z 0.000000 0.000000 1.800470 
# 
# From -- ./inp_files/2634.got.cif
#   From: 2010.05.17/outbox.cif.g08.bks.cpg/sg122_2_cif.got.tgz:2634.got - 2010.05.20 11:37:33.
