data_PCOD9560772
_publ_section_title
;
Structure prediction by ZEFSAII (Michael W. Deem and Ramdas Pophale) SiO2 
 PCOD9560772
Probable space group: I -4 2 D
;
_chemical_formula_sum "Si O2"
_cell_formula_units_Z 96
_cell_length_a 32.935368
_cell_length_b 32.935368
_cell_length_c 5.062911
_cell_angle_alpha 90.000000
_cell_angle_beta 90.000000
_cell_angle_gamma 90.000000
_cell_volume 5491.934308
_symmetry_space_group_name_H-M "I -4 2 D"
_symmetry_group_IT_number 122
_symmetry_cell_setting 'tetragonal'
loop_
_space_group_symop_operation_xyz
x,y,z
y,-x,-z
-x,-y,z
-y,x,-z
x,1/2-y,1/4-z
-x,1/2+y,1/4-z
-y,1/2-x,1/4+z
y,1/2+x,1/4+z
1/2+x,1/2+y,1/2+z
1/2+y,1/2-x,1/2-z
1/2-x,1/2-y,1/2+z
1/2-y,1/2+x,1/2-z
1/2+x,-y,3/4-z
1/2-x,y,3/4-z
1/2-y,-x,3/4+z
1/2+y,x,3/4+z
loop_
_atom_site_type_symbol
_atom_site_label
_atom_site_fract_x
_atom_site_fract_y
_atom_site_fract_z
Si Si1 0.750000 0.882234 0.875000
Si Si2 0.324812 0.750000 0.125000
Si Si3 0.666527 0.777939 0.369348
Si Si4 0.590714 0.537507 0.315932
Si Si5 0.861415 0.371214 0.491511
Si Si6 0.595260 0.162835 0.492058
Si Si7 0.443707 0.419190 0.814866
O O1 0.741034 0.853067 0.626478
O O2 0.789879 0.907691 0.804828
O O3 0.298006 0.789495 0.187134
O O4 0.670674 0.750000 0.625000
O O5 0.636342 0.815035 0.433021
O O6 0.653974 0.750000 0.125000
O O7 0.636180 0.555142 0.285687
O O8 0.574608 0.548495 0.606075
O O9 0.587717 0.490490 0.248158
O O10 0.564098 0.563200 0.105915
O O11 0.871835 0.355978 0.197360
O O12 0.878759 0.416557 0.526276
O O13 0.888125 0.344710 0.698086
#
# Coordination Sequence:
#
# PCOD9560772 Si02
#       7
#     8   8  16  16  16  16  16
#     4  12  18  33  56  74 100 140 182 232 262 304
#     4  12  22  33  50  78 108 134 174 234 276 302
#     4  12  22  34  50  75 106 142 180 219 269 321
#     4  10  21  35  56  86 109 143 171 214 269 326
#     4  10  20  37  52  74 104 144 176 211 260 323
#     4  10  19  34  54  76 102 136 182 214 265 310
#     4  10  21  36  58  82 113 139 174 217 267 324
#
# _framework density 17.480180000000001
#
# number of rings (size 3 to 8) (size 9 to 14) (size 15 to 20)
#    0.000    1.333    3.333    3.500    0.000    2.000 
#    0.000    0.000    1.833    0.000    2.167    0.000 
#    0.000    0.000    0.000    0.000    0.000    0.000 
#
# Total GULP energy -268141.761375 kJ/mol
# GULP energy per Si atom -5586.286695 kJ/mol
# Density = 1.744039 g / cm^3
# Si number density = 17.480180 Si / 1000 Ang^3
#
#
#
# Elastic Constant Matrix: (Units=GPa)
#
#
# Indices 1 2 3 4 5 6 
#
# 1 85.8330 41.7608 -12.5601 0.0000 0.0000 0.0000
# 2 41.7608 85.8330 -12.5601 0.0000 0.0000 0.0000
# 3 -12.5601 -12.5601 55.6126 0.0000 0.0000 0.0000
# 4 0.0000 0.0000 0.0000 -1.8271 0.0000 0.0000
# 5 0.0000 0.0000 0.0000 0.0000 -1.8271 0.0000
# 6 0.0000 0.0000 0.0000 0.0000 0.0000 19.5397
#
#
#
# Elastic Compliance Matrix: (Units=1/GPa)
#
#
# Indices 1 2 3 4 5 6 
#
# 1 0.015446 -0.007244 0.001852 0.000000 0.000000 0.000000
# 2 -0.007244 0.015446 0.001852 0.000000 0.000000 0.000000
# 3 0.001852 0.001852 0.018818 0.000000 0.000000 0.000000
# 4 0.000000 0.000000 0.000000 -0.547317 0.000000 0.000000
# 5 0.000000 0.000000 0.000000 0.000000 -0.547317 0.000000
# 6 0.000000 0.000000 0.000000 0.000000 0.000000 0.051178
#
#
# Mechanical properties :
#
#
# Convention : Reuss Voigt Hill
#
# Bulk Modulus (GPa) = 23.45644 28.95108 26.20376
# Shear Modulus (GPa) = -5.14162 17.21964 6.03901
#
# Velocity S-wave (km/s) = -1.71691 3.14203 1.86072
# Velocity P-wave (km/s) = 3.08507 5.45539 4.43164
#
# Compressibility (1/GPa) = 0.04263221
#
# Stress axis : x y z
#
# Youngs Moduli (GPa) = 64.74139 64.74139 53.13979
#
# Poissons Ratio (x) = 0.46899 -0.09844
# Poissons Ratio (y) = 0.46899 -0.09844
# Poissons Ratio (z) = -0.11993 -0.11993
#
# Static dielectric constant tensor:
#      x y z
#    x 1.583050 0.000000 0.000000 
#    y 0.000000 1.583050 0.000000 
#    z 0.000000 0.000000 1.594310 
# 
# From -- ./inp_files/1465.got.cif
#   From: 2010.05.17/outbox.cif.g08.bks.cpg/sg122_1_cif.got.tgz:1465.got - 2010.05.20 11:37:33.
