data_PCOD9560269
_publ_section_title
;
Structure prediction by ZEFSAII (Michael W. Deem and Ramdas Pophale) SiO2 
 PCOD9560269
Probable space group: I -4 2 M
;
_chemical_formula_sum "Si O2"
_cell_formula_units_Z 96
_cell_length_a 15.376267
_cell_length_b 15.376267
_cell_length_c 18.369833
_cell_angle_alpha 90.000000
_cell_angle_beta 90.000000
_cell_angle_gamma 90.000000
_cell_volume 4343.172027
_symmetry_space_group_name_H-M "I -4 2 M"
_symmetry_group_IT_number 121
_symmetry_cell_setting 'tetragonal'
loop_
_space_group_symop_operation_xyz
x,y,z
y,-x,-z
-x,-y,z
-y,x,-z
x,-y,-z
-x,y,-z
-y,-x,z
y,x,z
1/2+x,1/2+y,1/2+z
1/2+y,1/2-x,1/2-z
1/2-x,1/2-y,1/2+z
1/2-y,1/2+x,1/2-z
1/2+x,1/2-y,1/2-z
1/2-x,1/2+y,1/2-z
1/2-y,1/2-x,1/2+z
1/2+y,1/2+x,1/2+z
loop_
_atom_site_type_symbol
_atom_site_label
_atom_site_fract_x
_atom_site_fract_y
_atom_site_fract_z
Si Si1 0.848251 0.289894 0.381332
Si Si2 0.711415 0.474954 0.076856
Si Si3 0.948726 0.418396 0.127609
Si Si4 0.999912 0.138292 0.267604
Si Si5 0.307586 0.171296 0.961865
Si Si6 0.426817 0.175026 0.736272
O O1 0.805521 0.194479 0.382310
O O2 0.948751 0.281206 0.404005
O O3 0.806343 0.338148 0.450689
O O4 0.825896 0.333417 0.304042
O O5 0.650209 0.481099 0.146309
O O6 0.758819 0.383444 0.060721
O O7 0.669040 0.500000 0.000000
O O8 0.916373 0.343321 0.073737
O O9 0.867497 0.428972 0.184122
O O10 0.000000 0.500000 0.092026
O O11 0.021143 0.386744 0.183169
O O12 0.905464 0.094537 0.256317
O O13 0.024186 0.232783 0.237067
O O14 0.069995 0.069995 0.238112
O O15 0.217042 0.217042 0.938709
#
# Coordination Sequence:
#
# PCOD9560269 Si02
#       6
#    16  16  16  16  16  16
#     4  10  22  39  61  94 127 167 217 262 317 392
#     4  10  19  35  59  89 123 158 198 252 308 374
#     4  12  23  40  63  93 130 162 211 266 325 392
#     4  11  24  39  57  87 123 164 215 258 306 381
#     4  10  22  40  63  91 127 168 214 261 319 391
#     4  12  22  39  64  86 126 167 207 268 328 381
#
# _framework density 22.103659
#
# number of rings (size 3 to 8) (size 9 to 14) (size 15 to 20)
#    0.000    1.167    3.333    3.500    0.000    4.000 
#    0.000    2.500    0.000    0.000    0.000    0.000 
#    0.000    4.000    0.000    0.000    0.000    0.000 
#
# Total GULP energy -267644.032855 kJ/mol
# GULP energy per Si atom -5575.917351 kJ/mol
# Density = 2.205335 g / cm^3
# Si number density = 22.103659 Si / 1000 Ang^3
#
#
#
# Elastic Constant Matrix: (Units=GPa)
#
#
# Indices 1 2 3 4 5 6 
#
# 1 69.2122 -16.1682 20.7624 0.0000 0.0000 0.0000
# 2 -16.1682 69.2107 20.7619 0.0000 0.0000 0.0000
# 3 20.7624 20.7619 70.3784 0.0000 0.0000 0.0000
# 4 0.0000 0.0000 0.0000 15.2387 0.0000 0.0000
# 5 0.0000 0.0000 0.0000 0.0000 15.2378 0.0000
# 6 0.0000 0.0000 0.0000 0.0000 0.0000 46.8119
#
#
#
# Elastic Compliance Matrix: (Units=1/GPa)
#
#
# Indices 1 2 3 4 5 6 
#
# 1 0.018113 0.006401 -0.007232 0.000000 0.000000 0.000000
# 2 0.006401 0.018113 -0.007232 0.000000 0.000000 0.000000
# 3 -0.007232 -0.007232 0.018476 0.000000 0.000000 0.000000
# 4 0.000000 0.000000 0.000000 0.065622 0.000000 0.000000
# 5 0.000000 0.000000 0.000000 0.000000 0.065626 0.000000
# 6 0.000000 0.000000 0.000000 0.000000 0.000000 0.021362
#
#
# Mechanical properties :
#
#
# Convention : Reuss Voigt Hill
#
# Bulk Modulus (GPa) = 25.92261 28.83483 27.37872
# Shear Modulus (GPa) = 21.15981 27.68736 24.42359
#
# Velocity S-wave (km/s) = 3.09738 3.54307 3.32770
# Velocity P-wave (km/s) = 4.95428 5.45998 5.21327
#
# Compressibility (1/GPa) = 0.03857636
#
# Stress axis : x y z
#
# Youngs Moduli (GPa) = 55.20919 55.20813 54.12499
#
# Poissons Ratio (x) = -0.35337 0.39142
# Poissons Ratio (y) = -0.35338 0.39142
# Poissons Ratio (z) = 0.39926 0.39925
#
# Static dielectric constant tensor:
#      x y z
#    x 1.881950 0.000000 0.000000 
#    y 0.000000 1.881950 0.000000 
#    z 0.000000 0.000000 1.805320 
# 
# From -- ./inp_files/6418.got.cif
#   From: 2010.05.17/outbox.cif.g08.bks.cpg/sg121_4_cif.got.tgz:6418.got - 2010.05.20 11:32:06.
