data_PCOD9560844
_publ_section_title
;
Structure prediction by ZEFSAII (Michael W. Deem and Ramdas Pophale) SiO2 
 PCOD9560844
Probable space group: I -4 2 D
;
_chemical_formula_sum "Si O2"
_cell_formula_units_Z 96
_cell_length_a 14.027358
_cell_length_b 14.027358
_cell_length_c 26.072000
_cell_angle_alpha 90.000000
_cell_angle_beta 90.000000
_cell_angle_gamma 90.000000
_cell_volume 5130.103292
_symmetry_space_group_name_H-M "I -4 2 D"
_symmetry_group_IT_number 122
_symmetry_cell_setting 'tetragonal'
loop_
_space_group_symop_operation_xyz
x,y,z
y,-x,-z
-x,-y,z
-y,x,-z
x,1/2-y,1/4-z
-x,1/2+y,1/4-z
-y,1/2-x,1/4+z
y,1/2+x,1/4+z
1/2+x,1/2+y,1/2+z
1/2+y,1/2-x,1/2-z
1/2-x,1/2-y,1/2+z
1/2-y,1/2+x,1/2-z
1/2+x,-y,3/4-z
1/2-x,y,3/4-z
1/2-y,-x,3/4+z
1/2+y,x,3/4+z
loop_
_atom_site_type_symbol
_atom_site_label
_atom_site_fract_x
_atom_site_fract_y
_atom_site_fract_z
Si Si1 0.660092 0.653666 0.521855
Si Si2 0.675860 0.659968 0.156114
Si Si3 0.892545 0.459403 0.181368
Si Si4 0.546476 0.174945 0.913946
Si Si5 0.509980 0.705478 0.677924
Si Si6 0.064146 0.405805 0.499961
O O1 0.750500 0.699549 0.549868
O O2 0.633969 0.637361 0.462498
O O3 0.664407 0.547426 0.544219
O O4 0.571173 0.712138 0.544618
O O5 0.638626 0.750000 0.125000
O O6 0.733783 0.593712 0.114715
O O7 0.596325 0.613092 0.192002
O O8 0.864370 0.461709 0.122506
O O9 0.000000 0.500000 0.187837
O O10 0.625815 0.090609 0.913556
O O11 0.498459 0.174962 0.970338
O O12 0.472402 0.750000 0.625000
O O13 0.434945 0.656985 0.716207
O O14 0.000000 0.500000 0.498855
#
# Coordination Sequence:
#
# PCOD9560844 Si02
#       6
#    16  16  16  16  16  16
#     4  11  18  28  47  83 114 157 187 217 263 338
#     4  11  21  40  63  79 110 153 193 236 297 350
#     4  11  18  25  41  75 121 152 182 208 253 326
#     4  10  20  35  52  80 116 150 185 228 279 340
#     4  11  17  31  51  82 122 152 184 220 273 341
#     4  10  24  36  59  86 113 152 193 241 290 343
#
# _framework density 18.713073000000001
#
# number of rings (size 3 to 8) (size 9 to 14) (size 15 to 20)
#    0.000    1.333    6.667    3.500    0.000    0.000 
#    0.000    0.000    3.667    0.000    0.000    0.000 
#    0.000    0.000    0.000    0.000    0.000    0.000 
#
# Total GULP energy -267252.389537 kJ/mol
# GULP energy per Si atom -5567.758115 kJ/mol
# Density = 1.867048 g / cm^3
# Si number density = 18.713073 Si / 1000 Ang^3
#
#
#
# Elastic Constant Matrix: (Units=GPa)
#
#
# Indices 1 2 3 4 5 6 
#
# 1 53.3505 11.3244 32.8605 0.0000 0.0000 0.0000
# 2 11.3244 53.3505 32.8605 0.0000 0.0000 0.0000
# 3 32.8605 32.8605 89.6437 0.0000 0.0000 0.0000
# 4 0.0000 0.0000 0.0000 39.5888 0.0000 0.0000
# 5 0.0000 0.0000 0.0000 0.0000 39.5888 0.0000
# 6 0.0000 0.0000 0.0000 0.0000 0.0000 11.6607
#
#
#
# Elastic Compliance Matrix: (Units=1/GPa)
#
#
# Indices 1 2 3 4 5 6 
#
# 1 0.024218 0.000423 -0.009032 0.000000 0.000000 0.000000
# 2 0.000423 0.024218 -0.009032 0.000000 0.000000 0.000000
# 3 -0.009032 -0.009032 0.017777 0.000000 0.000000 0.000000
# 4 0.000000 0.000000 0.000000 0.025260 0.000000 0.000000
# 5 0.000000 0.000000 0.000000 0.000000 0.025260 0.000000
# 6 0.000000 0.000000 0.000000 0.000000 0.000000 0.085758
#
#
# Mechanical properties :
#
#
# Convention : Reuss Voigt Hill
#
# Bulk Modulus (GPa) = 32.33259 38.93727 35.63493
# Shear Modulus (GPa) = 20.15452 26.12094 23.13773
#
# Velocity S-wave (km/s) = 3.28537 3.74018 3.52013
# Velocity P-wave (km/s) = 5.63091 6.28527 5.96707
#
# Compressibility (1/GPa) = 0.03092855
#
# Stress axis : x y z
#
# Youngs Moduli (GPa) = 41.29229 41.29229 56.25172
#
# Poissons Ratio (x) = -0.01746 0.50809
# Poissons Ratio (y) = -0.01746 0.50809
# Poissons Ratio (z) = 0.37297 0.37297
#
# Static dielectric constant tensor:
#      x y z
#    x 1.704920 0.000000 0.000000 
#    y 0.000000 1.704920 0.000000 
#    z 0.000000 0.000000 1.733560 
# 
# From -- ./inp_files/9625.got.cif
#   From: 2010.05.17/outbox.cif.g08.bks.cpg/sg122_5_cif.got.tgz:9625.got - 2010.05.20 11:37:33.
