data_PCOD9560296
_publ_section_title
;
Structure prediction by ZEFSAII (Michael W. Deem and Ramdas Pophale) SiO2 
 PCOD9560296
Probable space group: I -4 2 M
;
_chemical_formula_sum "Si O2"
_cell_formula_units_Z 64
_cell_length_a 11.005476
_cell_length_b 11.005476
_cell_length_c 22.822513
_cell_angle_alpha 90.000000
_cell_angle_beta 90.000000
_cell_angle_gamma 90.000000
_cell_volume 2764.274231
_symmetry_space_group_name_H-M "I -4 2 M"
_symmetry_group_IT_number 121
_symmetry_cell_setting 'tetragonal'
loop_
_space_group_symop_operation_xyz
x,y,z
y,-x,-z
-x,-y,z
-y,x,-z
x,-y,-z
-x,y,-z
-y,-x,z
y,x,z
1/2+x,1/2+y,1/2+z
1/2+y,1/2-x,1/2-z
1/2-x,1/2-y,1/2+z
1/2-y,1/2+x,1/2-z
1/2+x,1/2-y,1/2-z
1/2-x,1/2+y,1/2-z
1/2-y,1/2-x,1/2+z
1/2+y,1/2+x,1/2+z
loop_
_atom_site_type_symbol
_atom_site_label
_atom_site_fract_x
_atom_site_fract_y
_atom_site_fract_z
Si Si1 0.702478 0.988583 0.757754
Si Si2 0.873487 0.321493 0.537227
Si Si3 0.356841 0.028446 0.121149
Si Si4 0.962391 0.218643 0.367944
O O1 0.611421 0.875426 0.749814
O O2 0.788809 0.983039 0.701844
O O3 0.732813 0.989021 0.826544
O O4 0.764597 0.235404 0.514100
O O5 0.835267 0.454476 0.561644
O O6 0.000000 0.327914 0.500000
O O7 0.920200 0.259074 0.597353
O O8 0.365849 0.172957 0.118786
O O9 0.500000 0.000000 0.138450
O O10 0.904058 0.095943 0.390499
#
# Coordination Sequence:
#
# PCOD9560296 Si02
#       4
#    16  16  16  16
#     4   9  12  28  50  74 105 139 188 237 266 318
#     4  11  23  38  56  79 113 155 193 234 285 347
#     4   9  17  33  55  78 105 145 199 234 271 327
#     4  10  20  32  53  84 114 146 186 237 291 339
#
# _framework density 23.152550000000002
#
# number of rings (size 3 to 8) (size 9 to 14) (size 15 to 20)
#    0.000    2.250    7.500    0.750    0.000    7.250 
#    0.000    0.000    0.000    0.750    0.000    0.000 
#    0.000   12.000    0.000    0.000    0.000    0.000 
#
# Total GULP energy -178206.830438 kJ/mol
# GULP energy per Si atom -5568.963451 kJ/mol
# Density = 2.309985 g / cm^3
# Si number density = 23.152550 Si / 1000 Ang^3
#
#
#
# Elastic Constant Matrix: (Units=GPa)
#
#
# Indices 1 2 3 4 5 6 
#
# 1 28.8897 44.4084 20.3781 0.0000 0.0000 0.0000
# 2 44.4084 28.8920 20.3782 0.0000 0.0000 0.0000
# 3 20.3781 20.3782 144.3810 0.0000 0.0000 0.0000
# 4 0.0000 0.0000 0.0000 8.6206 0.0000 0.0000
# 5 0.0000 0.0000 0.0000 0.0000 8.6195 0.0000
# 6 0.0000 0.0000 0.0000 0.0000 0.0000 22.4891
#
#
#
# Elastic Compliance Matrix: (Units=1/GPa)
#
#
# Indices 1 2 3 4 5 6 
#
# 1 -0.024820 0.039624 -0.002089 0.000000 0.000000 0.000000
# 2 0.039624 -0.024818 -0.002090 0.000000 0.000000 0.000000
# 3 -0.002089 -0.002090 0.007516 0.000000 0.000000 0.000000
# 4 0.000000 0.000000 0.000000 0.116001 0.000000 0.000000
# 5 0.000000 0.000000 0.000000 0.000000 0.116016 0.000000
# 6 0.000000 0.000000 0.000000 0.000000 0.000000 0.044466
#
#
# Mechanical properties :
#
#
# Convention : Reuss Voigt Hill
#
# Bulk Modulus (GPa) = 34.76220 41.38804 38.07512
# Shear Modulus (GPa) = 28.89182 15.74571 22.31876
#
# Velocity S-wave (km/s) = 3.53638 2.61067 3.10818
# Velocity P-wave (km/s) = 5.63220 5.19640 5.41868
#
# Compressibility (1/GPa) = 0.02876688
#
# Stress axis : x y z
#
# Youngs Moduli (GPa) = -40.28939 -40.29286 133.05026
#
# Poissons Ratio (x) = 1.59656 0.27800
# Poissons Ratio (y) = 1.59642 0.27803
# Poissons Ratio (z) = -0.08418 -0.08420
#
# Static dielectric constant tensor:
#      x y z
#    x 1.906780 0.000000 0.000000 
#    y 0.000000 1.906780 0.000000 
#    z 0.000000 0.000000 2.000380 
# 
# From -- ./inp_files/5995.got.cif
#   From: 2010.05.17/outbox.cif.g08.bks.cpg/sg121_3_cif.got.tgz:5995.got - 2010.05.20 11:32:06.
