data_PCOD9560468
_publ_section_title
;
Structure prediction by ZEFSAII (Michael W. Deem and Ramdas Pophale) SiO2 
 PCOD9560468
Probable space group: I -4 2 M
;
_chemical_formula_sum "Si O2"
_cell_formula_units_Z 96
_cell_length_a 15.435891
_cell_length_b 15.435891
_cell_length_c 18.458700
_cell_angle_alpha 90.000000
_cell_angle_beta 90.000000
_cell_angle_gamma 90.000000
_cell_volume 4398.094107
_symmetry_space_group_name_H-M "I -4 2 M"
_symmetry_group_IT_number 121
_symmetry_cell_setting 'tetragonal'
loop_
_space_group_symop_operation_xyz
x,y,z
y,-x,-z
-x,-y,z
-y,x,-z
x,-y,-z
-x,y,-z
-y,-x,z
y,x,z
1/2+x,1/2+y,1/2+z
1/2+y,1/2-x,1/2-z
1/2-x,1/2-y,1/2+z
1/2-y,1/2+x,1/2-z
1/2+x,1/2-y,1/2-z
1/2-x,1/2+y,1/2-z
1/2-y,1/2-x,1/2+z
1/2+y,1/2+x,1/2+z
loop_
_atom_site_type_symbol
_atom_site_label
_atom_site_fract_x
_atom_site_fract_y
_atom_site_fract_z
Si Si1 0.465232 0.166946 0.151014
Si Si2 0.743840 0.391758 0.593652
Si Si3 0.634970 0.852401 0.785153
Si Si4 0.700193 0.559696 0.681948
Si Si5 0.401333 0.898520 0.986637
Si Si6 0.361106 0.497683 0.831270
O O1 0.557968 0.121100 0.159212
O O2 0.428502 0.157486 0.231134
O O3 0.395987 0.126248 0.097375
O O4 0.485515 0.267186 0.135524
O O5 0.652963 0.347038 0.574652
O O6 0.784289 0.342729 0.662986
O O7 0.732497 0.491890 0.620726
O O8 0.815518 0.375107 0.531164
O O9 0.605946 0.772747 0.733961
O O10 0.634412 0.634412 0.654761
O O11 0.649921 0.504397 0.744061
O O12 0.500000 0.861373 0.000000
O O13 0.408979 0.000000 0.000000
O O14 0.426453 0.573548 0.851846
O O15 0.406576 0.406576 0.851298
#
# Coordination Sequence:
#
# PCOD9560468 Si02
#       6
#    16  16  16  16  16  16
#     4  11  23  38  65  98 132 174 219 280 345 406
#     4  12  24  42  67 101 136 182 237 286 343 420
#     4  11  21  39  65  99 132 173 227 282 338 412
#     4  10  21  38  62 100 142 179 226 288 349 403
#     4  11  25  44  64  91 134 180 220 274 348 416
#     4   9  18  34  59  92 130 170 219 276 337 405
#
# _framework density 21.827635000000001
#
# number of rings (size 3 to 8) (size 9 to 14) (size 15 to 20)
#    0.000    1.333    5.000    2.000    0.000    3.333 
#    0.000    2.500    0.000    0.000    0.000    1.167 
#    0.000    0.000    0.000    0.000    0.000    0.000 
#
# Total GULP energy -267528.076001 kJ/mol
# GULP energy per Si atom -5573.501583 kJ/mol
# Density = 2.177795 g / cm^3
# Si number density = 21.827635 Si / 1000 Ang^3
#
#
#
# Elastic Constant Matrix: (Units=GPa)
#
#
# Indices 1 2 3 4 5 6 
#
# 1 76.6988 72.0465 27.0998 0.0000 0.0000 0.0000
# 2 72.0465 76.6957 27.1002 0.0000 0.0000 0.0000
# 3 27.0998 27.1002 58.5031 0.0000 0.0000 0.0000
# 4 0.0000 0.0000 0.0000 12.8500 0.0000 0.0000
# 5 0.0000 0.0000 0.0000 0.0000 12.8496 0.0000
# 6 0.0000 0.0000 0.0000 0.0000 0.0000 34.4400
#
#
#
# Elastic Compliance Matrix: (Units=1/GPa)
#
#
# Indices 1 2 3 4 5 6 
#
# 1 0.111550 -0.103464 -0.003745 0.000000 0.000000 0.000000
# 2 -0.103464 0.111556 -0.003749 0.000000 0.000000 0.000000
# 3 -0.003745 -0.003749 0.020564 0.000000 0.000000 0.000000
# 4 0.000000 0.000000 0.000000 0.077821 0.000000 0.000000
# 5 0.000000 0.000000 0.000000 0.000000 0.077823 0.000000
# 6 0.000000 0.000000 0.000000 0.000000 0.000000 0.029036
#
#
# Mechanical properties :
#
#
# Convention : Reuss Voigt Hill
#
# Bulk Modulus (GPa) = 45.96857 51.59895 48.78376
# Shear Modulus (GPa) = 7.60437 17.73800 12.67119
#
# Velocity S-wave (km/s) = 1.86853 2.85378 2.41199
# Velocity P-wave (km/s) = 5.07550 5.87787 5.49136
#
# Compressibility (1/GPa) = 0.02175399
#
# Stress axis : x y z
#
# Youngs Moduli (GPa) = 8.96462 8.96413 48.62828
#
# Poissons Ratio (x) = 0.92747 0.18209
# Poissons Ratio (y) = 0.92752 0.18230
# Poissons Ratio (z) = 0.03357 0.03360
#
# Static dielectric constant tensor:
#      x y z
#    x 2.051290 0.000000 0.000000 
#    y 0.000000 2.051320 0.000000 
#    z 0.000000 0.000000 1.906930 
# 
# From -- ./inp_files/6449.got.cif
#   From: 2010.05.17/outbox.cif.g08.bks.cpg/sg121_4_cif.got.tgz:6449.got - 2010.05.20 11:32:06.
