data_PCOD9560559
_publ_section_title
;
Structure prediction by ZEFSAII (Michael W. Deem and Ramdas Pophale) SiO2 
 PCOD9560559
Probable space group: I -4 2 M
;
_chemical_formula_sum "Si O2"
_cell_formula_units_Z 128
_cell_length_a 24.903583
_cell_length_b 24.903583
_cell_length_c 11.590238
_cell_angle_alpha 90.000000
_cell_angle_beta 90.000000
_cell_angle_gamma 90.000000
_cell_volume 7188.131697
_symmetry_space_group_name_H-M "I -4 2 M"
_symmetry_group_IT_number 121
_symmetry_cell_setting 'tetragonal'
loop_
_space_group_symop_operation_xyz
x,y,z
y,-x,-z
-x,-y,z
-y,x,-z
x,-y,-z
-x,y,-z
-y,-x,z
y,x,z
1/2+x,1/2+y,1/2+z
1/2+y,1/2-x,1/2-z
1/2-x,1/2-y,1/2+z
1/2-y,1/2+x,1/2-z
1/2+x,1/2-y,1/2-z
1/2-x,1/2+y,1/2-z
1/2-y,1/2-x,1/2+z
1/2+y,1/2+x,1/2+z
loop_
_atom_site_type_symbol
_atom_site_label
_atom_site_fract_x
_atom_site_fract_y
_atom_site_fract_z
Si Si1 0.305795 0.391978 0.258035
Si Si2 0.052155 0.729076 0.059478
Si Si3 0.059727 0.850089 0.464216
Si Si4 0.972100 0.558152 0.613509
Si Si5 0.183250 0.729457 0.397174
Si Si6 0.012606 0.366248 0.183446
Si Si7 0.632818 0.276305 0.113710
Si Si8 0.703303 0.888825 0.176421
O O1 0.353940 0.353940 0.303479
O O2 0.268874 0.419305 0.352886
O O3 0.330216 0.434449 0.167515
O O4 0.268520 0.353545 0.179558
O O5 0.027913 0.675788 0.123188
O O6 0.090617 0.715287 0.952801
O O7 0.000000 0.755284 0.000000
O O8 0.099927 0.900074 0.476554
O O9 0.083285 0.803347 0.546619
O O10 0.000000 0.863279 0.500000
O O11 0.909945 0.542183 0.601379
O O12 0.000000 0.500000 0.629537
O O13 0.000000 0.581678 0.500000
O O14 0.983023 0.598215 0.719344
O O15 0.242382 0.757619 0.398426
O O16 0.159299 0.732540 0.526736
O O17 0.180923 0.670930 0.341824
O O18 0.064067 0.333524 0.230190
O O19 0.677992 0.322009 0.125983
O O20 0.617074 0.252660 0.236286
#
# Coordination Sequence:
#
# PCOD9560559 Si02
#       8
#    16  16  16  16  16  16  16  16
#     4   9  20  40  62  86 119 161 191 228 297 360
#     4  10  25  40  57  85 123 151 196 252 282 351
#     4   9  19  36  64  90 121 152 189 238 282 349
#     4  11  24  41  64  76 104 156 203 252 308 358
#     4   9  20  37  57  85 117 153 194 240 293 360
#     4  11  24  42  55  84 116 147 202 260 295 344
#     4   9  20  39  56  86 122 153 194 238 296 359
#     4  11  24  35  58  84 116 153 194 254 299 344
#
# _framework density 17.807130000000001
#
# number of rings (size 3 to 8) (size 9 to 14) (size 15 to 20)
#    0.000    2.125    1.250    1.875   12.250    2.125 
#    2.250    0.000    0.000    0.000    0.000    0.000 
#    0.000    0.000    0.000    0.000    0.000    0.000 
#
# Total GULP energy -356733.237293 kJ/mol
# GULP energy per Si atom -5573.956833 kJ/mol
# Density = 1.776660 g / cm^3
# Si number density = 17.807130 Si / 1000 Ang^3
#
#
#
# Elastic Constant Matrix: (Units=GPa)
#
#
# Indices 1 2 3 4 5 6 
#
# 1 73.2536 17.3298 41.5496 0.0000 0.0000 0.0000
# 2 17.3298 73.2537 41.5499 0.0000 0.0000 0.0000
# 3 41.5496 41.5499 92.3803 0.0000 0.0000 0.0000
# 4 0.0000 0.0000 0.0000 25.3292 0.0000 0.0000
# 5 0.0000 0.0000 0.0000 0.0000 25.3294 0.0000
# 6 0.0000 0.0000 0.0000 0.0000 0.0000 14.0695
#
#
#
# Elastic Compliance Matrix: (Units=1/GPa)
#
#
# Indices 1 2 3 4 5 6 
#
# 1 0.018338 0.000456 -0.008453 0.000000 0.000000 0.000000
# 2 0.000456 0.018338 -0.008453 0.000000 0.000000 0.000000
# 3 -0.008453 -0.008453 0.018429 0.000000 0.000000 0.000000
# 4 0.000000 0.000000 0.000000 0.039480 0.000000 0.000000
# 5 0.000000 0.000000 0.000000 0.000000 0.039480 0.000000
# 6 0.000000 0.000000 0.000000 0.000000 0.000000 0.071076
#
#
# Mechanical properties :
#
#
# Convention : Reuss Voigt Hill
#
# Bulk Modulus (GPa) = 45.03513 48.86069 46.94791
# Shear Modulus (GPa) = 20.37148 22.17617 21.27382
#
# Velocity S-wave (km/s) = 3.38599 3.53278 3.46016
# Velocity P-wave (km/s) = 6.37432 6.64373 6.51042
#
# Compressibility (1/GPa) = 0.02220489
#
# Stress axis : x y z
#
# Youngs Moduli (GPa) = 54.53210 54.53201 54.26332
#
# Poissons Ratio (x) = -0.02489 0.45869
# Poissons Ratio (y) = -0.02489 0.45869
# Poissons Ratio (z) = 0.46096 0.46096
#
# Static dielectric constant tensor:
#      x y z
#    x 1.618700 0.000000 0.000000 
#    y 0.000000 1.618700 0.000000 
#    z 0.000000 0.000000 1.638680 
# 
# From -- ./inp_files/3549.got.cif
#   From: 2010.05.17/outbox.cif.g08.bks.cpg/sg121_2_cif.got.tgz:3549.got - 2010.05.20 11:32:06.
