data_PCOD9560257
_publ_section_title
;
Structure prediction by ZEFSAII (Michael W. Deem and Ramdas Pophale) SiO2 
 PCOD9560257
Probable space group: I -4 2 M
;
_chemical_formula_sum "Si O2"
_cell_formula_units_Z 64
_cell_length_a 20.045307
_cell_length_b 20.045307
_cell_length_c 9.062246
_cell_angle_alpha 90.000000
_cell_angle_beta 90.000000
_cell_angle_gamma 90.000000
_cell_volume 3641.340329
_symmetry_space_group_name_H-M "I -4 2 M"
_symmetry_group_IT_number 121
_symmetry_cell_setting 'tetragonal'
loop_
_space_group_symop_operation_xyz
x,y,z
y,-x,-z
-x,-y,z
-y,x,-z
x,-y,-z
-x,y,-z
-y,-x,z
y,x,z
1/2+x,1/2+y,1/2+z
1/2+y,1/2-x,1/2-z
1/2-x,1/2-y,1/2+z
1/2-y,1/2+x,1/2-z
1/2+x,1/2-y,1/2-z
1/2-x,1/2+y,1/2-z
1/2-y,1/2-x,1/2+z
1/2+y,1/2+x,1/2+z
loop_
_atom_site_type_symbol
_atom_site_label
_atom_site_fract_x
_atom_site_fract_y
_atom_site_fract_z
Si Si1 0.339144 0.069696 0.937193
Si Si2 0.923561 0.186748 0.545292
Si Si3 0.185425 0.621135 0.872151
Si Si4 0.262031 0.370926 0.647621
O O1 0.331367 0.073025 0.763038
O O2 0.384147 0.130327 0.998532
O O3 0.267514 0.084986 0.015024
O O4 0.363742 0.000000 0.000000
O O5 0.880421 0.119580 0.535432
O O6 0.891836 0.242476 0.438062
O O7 0.913409 0.215457 0.711139
O O8 0.000000 0.177721 0.500000
O O9 0.174861 0.697126 0.813701
O O10 0.322272 0.322272 0.604763
#
# Coordination Sequence:
#
# PCOD9560257 Si02
#       4
#    16  16  16  16
#     4  10  20  34  55  82 112 144 181 232 283 333
#     4  11  22  37  59  85 116 152 188 233 282 334
#     4  10  19  34  57  82 110 144 189 230 285 327
#     4   9  18  34  54  82 109 142 186 233 279 328
#
# _framework density 17.575945999999998
#
# number of rings (size 3 to 8) (size 9 to 14) (size 15 to 20)
#    1.500    0.500    2.500    2.250    0.000    2.250 
#    0.000    0.000    0.000    6.000    0.000    0.000 
#    0.000    6.000    0.000    0.000    0.000    0.000 
#
# Total GULP energy -178167.022159 kJ/mol
# GULP energy per Si atom -5567.719442 kJ/mol
# Density = 1.753594 g / cm^3
# Si number density = 17.575946 Si / 1000 Ang^3
#
#
#
# Elastic Constant Matrix: (Units=GPa)
#
#
# Indices 1 2 3 4 5 6 
#
# 1 62.1406 28.1646 -1.1647 0.0000 0.0000 0.0000
# 2 28.1646 62.1414 -1.1626 0.0000 0.0000 0.0000
# 3 -1.1647 -1.1626 43.4279 0.0000 0.0000 0.0000
# 4 0.0000 0.0000 0.0000 19.3218 0.0000 0.0000
# 5 0.0000 0.0000 0.0000 0.0000 19.3214 0.0000
# 6 0.0000 0.0000 0.0000 0.0000 0.0000 0.2305
#
#
#
# Elastic Compliance Matrix: (Units=1/GPa)
#
#
# Indices 1 2 3 4 5 6 
#
# 1 0.020257 -0.009176 0.000298 0.000000 0.000000 0.000000
# 2 -0.009176 0.020257 0.000296 0.000000 0.000000 0.000000
# 3 0.000298 0.000296 0.023043 0.000000 0.000000 0.000000
# 4 0.000000 0.000000 0.000000 0.051755 0.000000 0.000000
# 5 0.000000 0.000000 0.000000 0.000000 0.051756 0.000000
# 6 0.000000 0.000000 0.000000 0.000000 0.000000 4.337905
#
#
# Mechanical properties :
#
#
# Convention : Reuss Voigt Hill
#
# Bulk Modulus (GPa) = 21.55516 24.37605 22.96560
# Shear Modulus (GPa) = 1.10190 17.23292 9.16741
#
# Velocity S-wave (km/s) = 0.79265 3.13466 2.28631
# Velocity P-wave (km/s) = 3.62331 5.19621 4.47934
#
# Compressibility (1/GPa) = 0.04639260
#
# Stress axis : x y z
#
# Youngs Moduli (GPa) = 49.36608 49.36683 43.39788
#
# Poissons Ratio (x) = 0.45297 -0.01292
# Poissons Ratio (y) = 0.45296 -0.01285
# Poissons Ratio (z) = -0.01469 -0.01462
#
# Static dielectric constant tensor:
#      x y z
#    x 1.590820 0.000000 0.000000 
#    y 0.000000 1.590820 0.000000 
#    z 0.000000 0.000000 1.601880 
# 
# From -- ./inp_files/1593.got.cif
#   From: 2010.05.17/outbox.cif.g08.bks.cpg/sg121_1_cif.got.tgz:1593.got - 2010.05.20 11:32:06.
