data_PCOD9560128
_publ_section_title
;
Structure prediction by ZEFSAII (Michael W. Deem and Ramdas Pophale) SiO2 
 PCOD9560128
Probable space group: I -4 2 M
;
_chemical_formula_sum "Si O2"
_cell_formula_units_Z 58
_cell_length_a 19.616245
_cell_length_b 19.616245
_cell_length_c 8.301776
_cell_angle_alpha 90.000000
_cell_angle_beta 90.000000
_cell_angle_gamma 90.000000
_cell_volume 3194.499063
_symmetry_space_group_name_H-M "I -4 2 M"
_symmetry_group_IT_number 121
_symmetry_cell_setting 'tetragonal'
loop_
_space_group_symop_operation_xyz
x,y,z
y,-x,-z
-x,-y,z
-y,x,-z
x,-y,-z
-x,y,-z
-y,-x,z
y,x,z
1/2+x,1/2+y,1/2+z
1/2+y,1/2-x,1/2-z
1/2-x,1/2-y,1/2+z
1/2-y,1/2+x,1/2-z
1/2+x,1/2-y,1/2-z
1/2-x,1/2+y,1/2-z
1/2-y,1/2-x,1/2+z
1/2+y,1/2+x,1/2+z
loop_
_atom_site_type_symbol
_atom_site_label
_atom_site_fract_x
_atom_site_fract_y
_atom_site_fract_z
Si Si1 0.985623 0.793852 0.810663
Si Si2 0.939657 0.060344 0.233379
Si Si3 0.000000 0.000000 0.000000
Si Si4 0.651226 0.763009 0.200138
Si Si5 0.243296 0.868369 0.680184
O O1 0.964334 0.865456 0.721172
O O2 0.920536 0.745254 0.788113
O O3 0.054097 0.766617 0.729999
O O4 0.000000 0.801960 0.000000
O O5 0.000000 0.000000 0.245174
O O6 0.941677 0.058323 0.040466
O O7 0.701246 0.701246 0.254892
O O8 0.692990 0.831386 0.235288
O O9 0.638748 0.754249 0.010641
O O10 0.176022 0.823979 0.723319
#
# Coordination Sequence:
#
# PCOD9560128 Si02
#       5
#    16   8   2  16  16
#     4  12  21  33  58  83 117 155 193 237 291 344
#     4  10  18  30  48  76 119 152 192 221 276 344
#     4   8  16  32  40  72 118 152 184 228 258 336
#     4  10  21  39  56  82 113 151 199 245 289 346
#     4  10  22  37  58  81 114 152 197 245 294 341
#
# _framework density 18.156210999999999
#
# number of rings (size 3 to 8) (size 9 to 14) (size 15 to 20)
#    0.414    1.103    2.759    3.310    1.931    2.207 
#    0.000    0.000    0.000    0.828    0.000    5.793 
#    0.000    0.000    0.000    0.000    0.000    0.000 
#
# Total GULP energy -161529.369768 kJ/mol
# GULP energy per Si atom -5569.978268 kJ/mol
# Density = 1.811489 g / cm^3
# Si number density = 18.156211 Si / 1000 Ang^3
#
#
#
# Elastic Constant Matrix: (Units=GPa)
#
#
# Indices 1 2 3 4 5 6 
#
# 1 133.7346 73.2202 18.5567 0.0000 0.0000 0.0000
# 2 73.2202 133.7356 18.5578 0.0000 0.0000 0.0000
# 3 18.5567 18.5578 19.6295 0.0000 0.0000 0.0000
# 4 0.0000 0.0000 0.0000 22.5869 0.0000 0.0000
# 5 0.0000 0.0000 0.0000 0.0000 22.5874 0.0000
# 6 0.0000 0.0000 0.0000 0.0000 0.0000 29.9744
#
#
#
# Elastic Compliance Matrix: (Units=1/GPa)
#
#
# Indices 1 2 3 4 5 6 
#
# 1 0.011172 -0.005353 -0.005500 0.000000 0.000000 0.000000
# 2 -0.005353 0.011172 -0.005501 0.000000 0.000000 0.000000
# 3 -0.005500 -0.005501 0.061344 0.000000 0.000000 0.000000
# 4 0.000000 0.000000 0.000000 0.044274 0.000000 0.000000
# 5 0.000000 0.000000 0.000000 0.000000 0.044272 0.000000
# 6 0.000000 0.000000 0.000000 0.000000 0.000000 0.033362
#
#
# Mechanical properties :
#
#
# Convention : Reuss Voigt Hill
#
# Bulk Modulus (GPa) = 19.61614 56.41878 38.01746
# Shear Modulus (GPa) = 19.58507 26.81407 23.19957
#
# Velocity S-wave (km/s) = 3.28792 3.84715 3.57848
# Velocity P-wave (km/s) = 5.02408 7.13272 6.16916
#
# Compressibility (1/GPa) = 0.05097842
#
# Stress axis : x y z
#
# Youngs Moduli (GPa) = 89.51283 89.51196 16.30155
#
# Poissons Ratio (x) = 0.47918 0.08966
# Poissons Ratio (y) = 0.47918 0.08968
# Poissons Ratio (z) = 0.49233 0.49241
#
# Static dielectric constant tensor:
#      x y z
#    x 1.638680 0.000000 0.000000 
#    y 0.000000 1.638680 0.000000 
#    z 0.000000 0.000000 1.024190 
# 
# From -- ./inp_files/1403.got.cif
#   From: 2010.05.17/outbox.cif.g08.bks.cpg/sg121_1_cif.got.tgz:1403.got - 2010.05.20 11:32:06.
