data_PCOD9560332
_publ_section_title
;
Structure prediction by ZEFSAII (Michael W. Deem and Ramdas Pophale) SiO2 
 PCOD9560332
Probable space group: I -4 2 M
;
_chemical_formula_sum "Si O2"
_cell_formula_units_Z 64
_cell_length_a 13.116019
_cell_length_b 13.116019
_cell_length_c 19.919765
_cell_angle_alpha 90.000000
_cell_angle_beta 90.000000
_cell_angle_gamma 90.000000
_cell_volume 3426.796265
_symmetry_space_group_name_H-M "I -4 2 M"
_symmetry_group_IT_number 121
_symmetry_cell_setting 'tetragonal'
loop_
_space_group_symop_operation_xyz
x,y,z
y,-x,-z
-x,-y,z
-y,x,-z
x,-y,-z
-x,y,-z
-y,-x,z
y,x,z
1/2+x,1/2+y,1/2+z
1/2+y,1/2-x,1/2-z
1/2-x,1/2-y,1/2+z
1/2-y,1/2+x,1/2-z
1/2+x,1/2-y,1/2-z
1/2-x,1/2+y,1/2-z
1/2-y,1/2-x,1/2+z
1/2+y,1/2+x,1/2+z
loop_
_atom_site_type_symbol
_atom_site_label
_atom_site_fract_x
_atom_site_fract_y
_atom_site_fract_z
Si Si1 0.910899 0.254567 0.327223
Si Si2 0.451400 0.113625 0.409761
Si Si3 0.303921 0.134788 0.288317
Si Si4 0.342198 0.172361 0.541759
O O1 0.850472 0.149529 0.316818
O O2 0.848658 0.339856 0.284919
O O3 0.901432 0.284368 0.405470
O O4 0.024379 0.254772 0.299156
O O5 0.397631 0.136559 0.340128
O O6 0.368894 0.125386 0.469367
O O7 0.545727 0.187830 0.426245
O O8 0.500000 0.000000 0.410434
O O9 0.222088 0.222088 0.304236
O O10 0.272603 0.272603 0.536044
#
# Coordination Sequence:
#
# PCOD9560332 Si02
#       4
#    16  16  16  16
#     4  10  22  37  57  87 118 155 197 242 293 348
#     4  11  21  36  59  88 113 152 203 243 291 350
#     4  11  23  38  59  88 120 156 199 244 294 351
#     4  10  20  35  56  84 119 148 190 247 294 341
#
# _framework density 18.676337
#
# number of rings (size 3 to 8) (size 9 to 14) (size 15 to 20)
#    0.000    1.500    2.500    3.750    0.000    0.500 
#    0.000    0.000    0.000   14.250    0.000    7.000 
#    0.000    0.000    0.000    0.000    0.000    0.000 
#
# Total GULP energy -178572.401383 kJ/mol
# GULP energy per Si atom -5580.387543 kJ/mol
# Density = 1.863383 g / cm^3
# Si number density = 18.676337 Si / 1000 Ang^3
#
#
#
# Elastic Constant Matrix: (Units=GPa)
#
#
# Indices 1 2 3 4 5 6 
#
# 1 88.7841 47.8213 18.4459 0.0000 0.0000 0.0000
# 2 47.8213 88.7842 18.4479 0.0000 0.0000 0.0000
# 3 18.4459 18.4479 71.8225 0.0000 0.0000 0.0000
# 4 0.0000 0.0000 0.0000 28.9611 0.0000 0.0000
# 5 0.0000 0.0000 0.0000 0.0000 28.9606 0.0000
# 6 0.0000 0.0000 0.0000 0.0000 0.0000 37.1576
#
#
#
# Elastic Compliance Matrix: (Units=1/GPa)
#
#
# Indices 1 2 3 4 5 6 
#
# 1 0.016139 -0.008273 -0.002020 0.000000 0.000000 0.000000
# 2 -0.008273 0.016139 -0.002021 0.000000 0.000000 0.000000
# 3 -0.002020 -0.002021 0.014961 0.000000 0.000000 0.000000
# 4 0.000000 0.000000 0.000000 0.034529 0.000000 0.000000
# 5 0.000000 0.000000 0.000000 0.000000 0.034530 0.000000
# 6 0.000000 0.000000 0.000000 0.000000 0.000000 0.026912
#
#
# Mechanical properties :
#
#
# Convention : Reuss Voigt Hill
#
# Bulk Modulus (GPa) = 44.22475 46.53566 45.38021
# Shear Modulus (GPa) = 28.51030 29.99426 29.25228
#
# Velocity S-wave (km/s) = 3.91134 4.01185 3.96191
# Velocity P-wave (km/s) = 6.64297 6.81402 6.72904
#
# Compressibility (1/GPa) = 0.02261177
#
# Stress axis : x y z
#
# Youngs Moduli (GPa) = 61.96139 61.96073 66.84047
#
# Poissons Ratio (x) = 0.51261 0.13501
# Poissons Ratio (y) = 0.51262 0.13506
# Poissons Ratio (z) = 0.12516 0.12520
#
# Static dielectric constant tensor:
#      x y z
#    x 1.644690 0.000000 0.000000 
#    y 0.000000 1.644690 0.000000 
#    z 0.000000 0.000000 1.666580 
# 
# From -- ./inp_files/6032.got.cif
#   From: 2010.05.17/outbox.cif.g08.bks.cpg/sg121_4_cif.got.tgz:6032.got - 2010.05.20 11:32:06.
