data_PCOD9560196
_publ_section_title
;
Structure prediction by ZEFSAII (Michael W. Deem and Ramdas Pophale) SiO2 
 PCOD9560196
Probable space group: I -4 2 M
;
_chemical_formula_sum "Si O2"
_cell_formula_units_Z 112
_cell_length_a 17.116565
_cell_length_b 17.116565
_cell_length_c 23.409130
_cell_angle_alpha 90.000000
_cell_angle_beta 90.000000
_cell_angle_gamma 90.000000
_cell_volume 6858.331937
_symmetry_space_group_name_H-M "I -4 2 M"
_symmetry_group_IT_number 121
_symmetry_cell_setting 'tetragonal'
loop_
_space_group_symop_operation_xyz
x,y,z
y,-x,-z
-x,-y,z
-y,x,-z
x,-y,-z
-x,y,-z
-y,-x,z
y,x,z
1/2+x,1/2+y,1/2+z
1/2+y,1/2-x,1/2-z
1/2-x,1/2-y,1/2+z
1/2-y,1/2+x,1/2-z
1/2+x,1/2-y,1/2-z
1/2-x,1/2+y,1/2-z
1/2-y,1/2-x,1/2+z
1/2+y,1/2+x,1/2+z
loop_
_atom_site_type_symbol
_atom_site_label
_atom_site_fract_x
_atom_site_fract_y
_atom_site_fract_z
Si Si1 0.195614 0.930418 0.921141
Si Si2 0.873082 0.999654 0.430645
Si Si3 0.617489 0.081353 0.121118
Si Si4 0.775239 0.100352 0.054206
Si Si5 0.308330 0.985995 0.431932
Si Si6 0.640210 0.899138 0.129647
Si Si7 0.083824 0.600774 0.248076
O O1 0.119590 0.880411 0.907975
O O2 0.268375 0.908580 0.881660
O O3 0.183096 0.023098 0.920799
O O4 0.222423 0.909550 0.985853
O O5 0.924993 0.075008 0.412859
O O6 0.782206 0.002450 0.413661
O O7 0.872928 0.000000 0.500000
O O8 0.922572 0.922572 0.413102
O O9 0.688651 0.098564 0.078808
O O10 0.545298 0.133066 0.100074
O O11 0.638150 0.101783 0.186831
O O12 0.604322 0.987156 0.121615
O O13 0.822371 0.177630 0.069467
O O14 0.340545 0.901064 0.414308
O O15 0.313434 0.000000 0.500000
O O16 0.623917 0.871288 0.194040
O O17 0.104712 0.509145 0.242163
#
# Coordination Sequence:
#
# PCOD9560196 Si02
#       7
#    16  16  16  16  16  16  16
#     4   9  18  32  49  70  97 127 159 199 249 297
#     4   8  16  32  50  68  95 131 166 198 236 284
#     4  10  19  31  47  71 100 131 160 199 244 293
#     4   9  18  32  49  70  97 127 159 199 249 297
#     4  11  20  28  46  77 105 129 161 198 240 297
#     4  10  19  31  47  71 100 131 160 199 244 293
#     4   9  16  30  49  66  92 130 171 196 227 278
#
# _framework density 16.330501000000002
#
# number of rings (size 3 to 8) (size 9 to 14) (size 15 to 20)
#    0.000    2.571    1.429    1.714    0.000    3.714 
#    0.000    5.000    0.000    0.000    0.000    0.000 
#    0.000    0.000    0.000    0.000    0.000    0.000 
#
# Total GULP energy -311889.494404 kJ/mol
# GULP energy per Si atom -5569.455257 kJ/mol
# Density = 1.629333 g / cm^3
# Si number density = 16.330501 Si / 1000 Ang^3
#
#
#
# Elastic Constant Matrix: (Units=GPa)
#
#
# Indices 1 2 3 4 5 6 
#
# 1 37.1091 9.7820 -2.8075 0.0000 0.0000 0.0000
# 2 9.7820 37.1007 -2.8107 0.0000 0.0000 0.0000
# 3 -2.8075 -2.8107 39.3426 0.0000 0.0000 0.0000
# 4 0.0000 0.0000 0.0000 8.0156 0.0000 0.0000
# 5 0.0000 0.0000 0.0000 0.0000 8.0153 0.0000
# 6 0.0000 0.0000 0.0000 0.0000 0.0000 17.2417
#
#
#
# Elastic Compliance Matrix: (Units=1/GPa)
#
#
# Indices 1 2 3 4 5 6 
#
# 1 0.029052 -0.007544 0.001534 0.000000 0.000000 0.000000
# 2 -0.007544 0.029059 0.001538 0.000000 0.000000 0.000000
# 3 0.001534 0.001538 0.025637 0.000000 0.000000 0.000000
# 4 0.000000 0.000000 0.000000 0.124757 0.000000 0.000000
# 5 0.000000 0.000000 0.000000 0.000000 0.124761 0.000000
# 6 0.000000 0.000000 0.000000 0.000000 0.000000 0.057999
#
#
# Mechanical properties :
#
#
# Convention : Reuss Voigt Hill
#
# Bulk Modulus (GPa) = 13.36810 13.54222 13.45516
# Shear Modulus (GPa) = 11.76073 13.94710 12.85392
#
# Velocity S-wave (km/s) = 2.68651 2.92559 2.80859
# Velocity P-wave (km/s) = 4.22219 4.44102 4.33299
#
# Compressibility (1/GPa) = 0.07480492
#
# Stress axis : x y z
#
# Youngs Moduli (GPa) = 34.42083 34.41253 39.00600
#
# Poissons Ratio (x) = 0.25960 -0.05984
# Poissons Ratio (y) = 0.25966 -0.05998
# Poissons Ratio (z) = -0.05281 -0.05292
#
# Static dielectric constant tensor:
#      x y z
#    x 1.545850 0.000000 0.000000 
#    y 0.000000 1.545850 0.000000 
#    z 0.000000 0.000000 1.551410 
# 
# From -- ./inp_files/6624.got.cif
#   From: 2010.05.17/outbox.cif.g08.bks.cpg/sg121_4_cif.got.tgz:6624.got - 2010.05.20 11:32:06.
