data_PCOD9560402
_publ_section_title
;
Structure prediction by ZEFSAII (Michael W. Deem and Ramdas Pophale) SiO2 
 PCOD9560402
Probable space group: I -4 2 M
;
_chemical_formula_sum "Si O2"
_cell_formula_units_Z 96
_cell_length_a 21.266882
_cell_length_b 21.266882
_cell_length_c 9.624372
_cell_angle_alpha 90.000000
_cell_angle_beta 90.000000
_cell_angle_gamma 90.000000
_cell_volume 4352.913567
_symmetry_space_group_name_H-M "I -4 2 M"
_symmetry_group_IT_number 121
_symmetry_cell_setting 'tetragonal'
loop_
_space_group_symop_operation_xyz
x,y,z
y,-x,-z
-x,-y,z
-y,x,-z
x,-y,-z
-x,y,-z
-y,-x,z
y,x,z
1/2+x,1/2+y,1/2+z
1/2+y,1/2-x,1/2-z
1/2-x,1/2-y,1/2+z
1/2-y,1/2+x,1/2-z
1/2+x,1/2-y,1/2-z
1/2-x,1/2+y,1/2-z
1/2-y,1/2-x,1/2+z
1/2+y,1/2+x,1/2+z
loop_
_atom_site_type_symbol
_atom_site_label
_atom_site_fract_x
_atom_site_fract_y
_atom_site_fract_z
Si Si1 0.046476 0.784816 0.802260
Si Si2 0.073717 0.831089 0.523467
Si Si3 0.736621 0.838421 0.649237
Si Si4 0.533348 0.856096 0.791281
Si Si5 0.386685 0.098930 0.566908
Si Si6 0.699518 0.595238 0.393748
O O1 0.079922 0.826825 0.688619
O O2 0.042960 0.717419 0.728995
O O3 0.974678 0.806402 0.830193
O O4 0.082693 0.782193 0.947463
O O5 0.103862 0.896139 0.471469
O O6 0.114598 0.777029 0.449392
O O7 0.000000 0.823976 0.500000
O O8 0.770115 0.770115 0.638457
O O9 0.664744 0.847948 0.605877
O O10 0.749801 0.865698 0.803608
O O11 0.547699 0.884401 0.639849
O O12 0.464922 0.866147 0.854475
O O13 0.582150 0.884082 0.904674
O O14 0.635883 0.635883 0.385222
#
# Coordination Sequence:
#
# PCOD9560402 Si02
#       6
#    16  16  16  16  16  16
#     4  11  21  38  62  90 126 170 220 257 329 379
#     4  11  20  34  57  85 121 166 218 266 321 380
#     4  10  20  39  65  90 127 167 210 268 316 379
#     4  11  25  42  71  93 131 170 208 274 312 397
#     4  11  24  45  65 101 130 165 219 255 330 381
#     4  10  21  35  60  92 124 166 218 266 314 386
#
# _framework density 22.054193999999999
#
# number of rings (size 3 to 8) (size 9 to 14) (size 15 to 20)
#    0.000    1.333    5.000    0.500    2.333    1.167 
#    0.000    4.167    0.000    8.000    0.000    0.000 
#    0.000    0.000    0.000    0.000    0.000    0.000 
#
# Total GULP energy -268286.308204 kJ/mol
# GULP energy per Si atom -5589.298088 kJ/mol
# Density = 2.200400 g / cm^3
# Si number density = 22.054194 Si / 1000 Ang^3
#
#
#
# Elastic Constant Matrix: (Units=GPa)
#
#
# Indices 1 2 3 4 5 6 
#
# 1 48.6321 23.0539 18.3917 0.0000 0.0000 0.0000
# 2 23.0539 48.6307 18.3918 0.0000 0.0000 0.0000
# 3 18.3917 18.3918 106.1216 0.0000 0.0000 0.0000
# 4 0.0000 0.0000 0.0000 -1.7277 0.0000 0.0000
# 5 0.0000 0.0000 0.0000 0.0000 -1.7497 0.0000
# 6 0.0000 0.0000 0.0000 0.0000 0.0000 18.0869
#
#
#
# Elastic Compliance Matrix: (Units=1/GPa)
#
#
# Indices 1 2 3 4 5 6 
#
# 1 0.027204 -0.011893 -0.002654 0.000000 0.000000 0.000000
# 2 -0.011893 0.027205 -0.002654 0.000000 0.000000 0.000000
# 3 -0.002654 -0.002654 0.010343 0.000000 0.000000 0.000000
# 4 0.000000 0.000000 0.000000 -0.578816 0.000000 0.000000
# 5 0.000000 0.000000 0.000000 0.000000 -0.571516 0.000000
# 6 0.000000 0.000000 0.000000 0.000000 0.000000 0.055289
#
#
# Mechanical properties :
#
#
# Convention : Reuss Voigt Hill
#
# Bulk Modulus (GPa) = 32.94731 35.89546 34.42139
# Shear Modulus (GPa) = -5.07215 12.49172 3.70978
#
# Velocity S-wave (km/s) = -1.51817 2.38252 1.29837
# Velocity P-wave (km/s) = 3.44943 4.88671 4.22956
#
# Compressibility (1/GPa) = 0.03035149
#
# Stress axis : x y z
#
# Youngs Moduli (GPa) = 36.75972 36.75856 96.68440
#
# Poissons Ratio (x) = 0.43716 0.25655
# Poissons Ratio (y) = 0.43717 0.25657
# Poissons Ratio (z) = 0.09754 0.09755
#
# Static dielectric constant tensor:
#      x y z
#    x 1.802940 0.000000 0.000000 
#    y 0.000000 1.802940 0.000000 
#    z 0.000000 0.000000 1.851520 
# 
# From -- ./inp_files/1924.got.cif
#   From: 2010.05.17/outbox.cif.g08.bks.cpg/sg121_1_cif.got.tgz:1924.got - 2010.05.20 11:32:06.
