data_PCOD9560389
_publ_section_title
;
Structure prediction by ZEFSAII (Michael W. Deem and Ramdas Pophale) SiO2 
 PCOD9560389
Probable space group: I -4 2 M
;
_chemical_formula_sum "Si O2"
_cell_formula_units_Z 88
_cell_length_a 11.800754
_cell_length_b 11.800754
_cell_length_c 33.346256
_cell_angle_alpha 90.000000
_cell_angle_beta 90.000000
_cell_angle_gamma 90.000000
_cell_volume 4643.726081
_symmetry_space_group_name_H-M "I -4 2 M"
_symmetry_group_IT_number 121
_symmetry_cell_setting 'tetragonal'
loop_
_space_group_symop_operation_xyz
x,y,z
y,-x,-z
-x,-y,z
-y,x,-z
x,-y,-z
-x,y,-z
-y,-x,z
y,x,z
1/2+x,1/2+y,1/2+z
1/2+y,1/2-x,1/2-z
1/2-x,1/2-y,1/2+z
1/2-y,1/2+x,1/2-z
1/2+x,1/2-y,1/2-z
1/2-x,1/2+y,1/2-z
1/2-y,1/2-x,1/2+z
1/2+y,1/2+x,1/2+z
loop_
_atom_site_type_symbol
_atom_site_label
_atom_site_fract_x
_atom_site_fract_y
_atom_site_fract_z
Si Si1 0.094489 0.094489 0.899255
Si Si2 0.814151 0.373921 0.988916
Si Si3 0.374777 0.817779 0.809838
Si Si4 0.732984 0.456321 0.249627
Si Si5 0.971955 0.670061 0.934946
Si Si6 0.097532 0.097532 0.809256
Si Si7 0.000000 0.500000 0.132875
O O1 0.128804 0.128804 0.854163
O O2 0.038847 0.201262 0.920968
O O3 0.000000 0.000000 0.896243
O O4 0.712737 0.287264 0.981932
O O5 0.886066 0.340969 0.028222
O O6 0.774250 0.500000 0.000000
O O7 0.904973 0.366129 0.952491
O O8 0.269727 0.730274 0.821239
O O9 0.481299 0.750455 0.792166
O O10 0.333278 0.886630 0.770377
O O11 0.425392 0.908705 0.841591
O O12 0.629565 0.370436 0.245388
O O13 0.698896 0.546469 0.283739
O O14 0.942546 0.589995 0.897455
O O15 0.000000 0.000000 0.810976
#
# Coordination Sequence:
#
# PCOD9560389 Si02
#       7
#     8  16  16  16  16   8   8
#     4  11  22  36  62 102 130 163 217 269 325 393
#     4  11  22  43  71  94 125 170 207 249 311 387
#     4  11  23  38  62  91 122 171 225 271 332 394
#     4  10  20  38  60  85 121 164 217 276 321 378
#     4  11  22  42  63  95 135 166 201 263 325 381
#     4   9  18  34  56  80 119 158 198 264 325 357
#     4  12  24  42  62  92 136 172 212 272 334 388
#
# _framework density 18.950298
#
# number of rings (size 3 to 8) (size 9 to 14) (size 15 to 20)
#    0.000    1.273    3.636    3.273    0.000    3.091 
#    1.636    0.000    0.000    0.000    0.000    0.000 
#    0.000    0.000    0.000    0.000    0.000    0.000 
#
# Total GULP energy -245296.202256 kJ/mol
# GULP energy per Si atom -5574.913688 kJ/mol
# Density = 1.890717 g / cm^3
# Si number density = 18.950298 Si / 1000 Ang^3
#
#
#
# Elastic Constant Matrix: (Units=GPa)
#
#
# Indices 1 2 3 4 5 6 
#
# 1 66.6354 31.9910 25.8061 0.0000 0.0000 0.0000
# 2 31.9910 66.6331 25.8069 0.0000 0.0000 0.0000
# 3 25.8061 25.8069 83.6383 0.0000 0.0000 0.0000
# 4 0.0000 0.0000 0.0000 13.0594 0.0000 0.0000
# 5 0.0000 0.0000 0.0000 0.0000 13.0533 0.0000
# 6 0.0000 0.0000 0.0000 0.0000 0.0000 25.4108
#
#
#
# Elastic Compliance Matrix: (Units=1/GPa)
#
#
# Indices 1 2 3 4 5 6 
#
# 1 0.020478 -0.008387 -0.003731 0.000000 0.000000 0.000000
# 2 -0.008387 0.020479 -0.003731 0.000000 0.000000 0.000000
# 3 -0.003731 -0.003731 0.014259 0.000000 0.000000 0.000000
# 4 0.000000 0.000000 0.000000 0.076573 0.000000 0.000000
# 5 0.000000 0.000000 0.000000 0.000000 0.076609 0.000000
# 6 0.000000 0.000000 0.000000 0.000000 0.000000 0.039353
#
#
# Mechanical properties :
#
#
# Convention : Reuss Voigt Hill
#
# Bulk Modulus (GPa) = 42.51950 42.67941 42.59946
# Shear Modulus (GPa) = 17.40407 19.19153 18.29780
#
# Velocity S-wave (km/s) = 3.03381 3.18579 3.11073
# Velocity P-wave (km/s) = 5.89560 6.00858 5.95236
#
# Compressibility (1/GPa) = 0.02351862
#
# Stress axis : x y z
#
# Youngs Moduli (GPa) = 48.83228 48.82988 70.13311
#
# Poissons Ratio (x) = 0.40953 0.26164
# Poissons Ratio (y) = 0.40955 0.26168
# Poissons Ratio (z) = 0.18218 0.18220
#
# Static dielectric constant tensor:
#      x y z
#    x 1.936810 0.000000 0.000000 
#    y 0.000000 1.937070 0.000000 
#    z 0.000000 0.000000 1.664870 
# 
# From -- ./inp_files/8253.got.cif
#   From: 2010.05.17/outbox.cif.g08.bks.cpg/sg121_5_cif.got.tgz:8253.got - 2010.05.20 11:32:06.
