data_PCOD9560813
_publ_section_title
;
Structure prediction by ZEFSAII (Michael W. Deem and Ramdas Pophale) SiO2 
 PCOD9560813
Probable space group: I -4 2 D
;
_chemical_formula_sum "Si O2"
_cell_formula_units_Z 100
_cell_length_a 31.037559
_cell_length_b 31.037559
_cell_length_c 5.398949
_cell_angle_alpha 90.000000
_cell_angle_beta 90.000000
_cell_angle_gamma 90.000000
_cell_volume 5200.969911
_symmetry_space_group_name_H-M "I -4 2 D"
_symmetry_group_IT_number 122
_symmetry_cell_setting 'tetragonal'
loop_
_space_group_symop_operation_xyz
x,y,z
y,-x,-z
-x,-y,z
-y,x,-z
x,1/2-y,1/4-z
-x,1/2+y,1/4-z
-y,1/2-x,1/4+z
y,1/2+x,1/4+z
1/2+x,1/2+y,1/2+z
1/2+y,1/2-x,1/2-z
1/2-x,1/2-y,1/2+z
1/2-y,1/2+x,1/2-z
1/2+x,-y,3/4-z
1/2-x,y,3/4-z
1/2-y,-x,3/4+z
1/2+y,x,3/4+z
loop_
_atom_site_type_symbol
_atom_site_label
_atom_site_fract_x
_atom_site_fract_y
_atom_site_fract_z
Si Si1 0.250000 0.221890 0.375000
Si Si2 0.648099 0.190436 0.261157
Si Si3 0.601066 0.250000 0.625000
Si Si4 0.512005 0.872939 0.943194
Si Si5 0.500000 0.000000 0.750000
Si Si6 0.391534 0.385465 0.275293
Si Si7 0.671006 0.571868 0.643880
Si Si8 0.519388 0.084925 0.433213
O O1 0.251075 0.250000 0.625000
O O2 0.206791 0.192014 0.389019
O O3 0.634086 0.230010 0.431018
O O4 0.645154 0.145139 0.409527
O O5 0.607413 0.186300 0.083364
O O6 0.571615 0.290420 0.553034
O O7 0.503248 0.906911 0.168760
O O8 0.562487 0.862825 0.947328
O O9 0.475509 0.837387 0.995667
O O10 0.500546 0.886820 0.660228
O O11 0.513920 0.038572 0.565431
O O12 0.371514 0.406202 0.524818
O O13 0.401802 0.430750 0.135404
#
# Coordination Sequence:
#
# PCOD9560813 Si02
#       8
#     8  16   8  16   4  16  16  16
#     4  12  27  44  72 110 134 160 208 278 361 428
#     4  11  21  41  69  99 130 167 210 278 339 411
#     4  10  19  38  68 100 122 160 222 278 329 392
#     4  11  24  39  56  91 129 172 225 271 325 389
#     4  12  24  34  56  82 136 186 240 290 336 366
#     4  10  23  37  61  91 135 174 227 266 339 390
#     4  10  21  38  65  94 126 173 220 279 322 393
#     4  11  24  36  54  84 129 181 228 282 318 376
#
# _framework density 19.227183
#
# number of rings (size 3 to 8) (size 9 to 14) (size 15 to 20)
#    0.000    1.280    4.800    0.480    6.720    0.640 
#    0.000    0.000    0.000    3.840    2.080    0.000 
#    0.000    0.000    0.000    0.000    0.000    0.000 
#
# Total GULP energy -278387.146001 kJ/mol
# GULP energy per Si atom -5567.742920 kJ/mol
# Density = 1.918342 g / cm^3
# Si number density = 19.227183 Si / 1000 Ang^3
#
#
#
# Elastic Constant Matrix: (Units=GPa)
#
#
# Indices 1 2 3 4 5 6 
#
# 1 100.2690 46.0715 31.6721 0.0000 0.0000 0.0000
# 2 46.0715 100.2690 31.6721 0.0000 0.0000 0.0000
# 3 31.6721 31.6721 63.5833 0.0000 0.0000 0.0000
# 4 0.0000 0.0000 0.0000 22.6079 0.0000 0.0000
# 5 0.0000 0.0000 0.0000 0.0000 22.6079 0.0000
# 6 0.0000 0.0000 0.0000 0.0000 0.0000 28.2728
#
#
#
# Elastic Compliance Matrix: (Units=1/GPa)
#
#
# Indices 1 2 3 4 5 6 
#
# 1 0.013581 -0.004870 -0.004339 0.000000 0.000000 0.000000
# 2 -0.004870 0.013581 -0.004339 0.000000 0.000000 0.000000
# 3 -0.004339 -0.004339 0.020051 0.000000 0.000000 0.000000
# 4 0.000000 0.000000 0.000000 0.044232 0.000000 0.000000
# 5 0.000000 0.000000 0.000000 0.000000 0.044232 0.000000
# 6 0.000000 0.000000 0.000000 0.000000 0.000000 0.035370
#
#
# Mechanical properties :
#
#
# Convention : Reuss Voigt Hill
#
# Bulk Modulus (GPa) = 49.71143 53.66142 51.68642
# Shear Modulus (GPa) = 24.40808 25.01143 24.70976
#
# Velocity S-wave (km/s) = 3.56681 3.61062 3.58878
# Velocity P-wave (km/s) = 6.54780 6.73438 6.64175
#
# Compressibility (1/GPa) = 0.02011610
#
# Stress axis : x y z
#
# Youngs Moduli (GPa) = 73.63017 73.63017 49.87387
#
# Poissons Ratio (x) = 0.35855 0.21643
# Poissons Ratio (y) = 0.35855 0.21643
# Poissons Ratio (z) = 0.31952 0.31952
#
# Static dielectric constant tensor:
#      x y z
#    x 1.724420 0.000000 0.000000 
#    y 0.000000 1.724420 0.000000 
#    z 0.000000 0.000000 1.837940 
# 
# From -- ./inp_files/1497.got.cif
#   From: 2010.05.17/outbox.cif.g08.bks.cpg/sg122_1_cif.got.tgz:1497.got - 2010.05.20 11:37:33.
