data_PCOD9560592
_publ_section_title
;
Structure prediction by ZEFSAII (Michael W. Deem and Ramdas Pophale) SiO2 
 PCOD9560592
Probable space group: I -4 2 M
;
_chemical_formula_sum "Si O2"
_cell_formula_units_Z 112
_cell_length_a 14.341040
_cell_length_b 14.341040
_cell_length_c 27.542729
_cell_angle_alpha 90.000000
_cell_angle_beta 90.000000
_cell_angle_gamma 90.000000
_cell_volume 5664.587156
_symmetry_space_group_name_H-M "I -4 2 M"
_symmetry_group_IT_number 121
_symmetry_cell_setting 'tetragonal'
loop_
_space_group_symop_operation_xyz
x,y,z
y,-x,-z
-x,-y,z
-y,x,-z
x,-y,-z
-x,y,-z
-y,-x,z
y,x,z
1/2+x,1/2+y,1/2+z
1/2+y,1/2-x,1/2-z
1/2-x,1/2-y,1/2+z
1/2-y,1/2+x,1/2-z
1/2+x,1/2-y,1/2-z
1/2-x,1/2+y,1/2-z
1/2-y,1/2-x,1/2+z
1/2+y,1/2+x,1/2+z
loop_
_atom_site_type_symbol
_atom_site_label
_atom_site_fract_x
_atom_site_fract_y
_atom_site_fract_z
Si Si1 0.155964 0.519200 0.242139
Si Si2 0.810963 0.471368 0.130258
Si Si3 0.323756 0.821176 0.403248
Si Si4 0.796828 0.948207 0.170696
Si Si5 0.569871 0.717169 0.960117
Si Si6 0.267653 0.880110 0.110495
Si Si7 0.837912 0.601893 0.491775
O O1 0.100493 0.422781 0.253359
O O2 0.196061 0.515712 0.187702
O O3 0.239139 0.537951 0.279739
O O4 0.843203 0.570528 0.108251
O O5 0.719625 0.455415 0.096516
O O6 0.874031 0.377628 0.124301
O O7 0.216957 0.783044 0.401110
O O8 0.380280 0.763793 0.363558
O O9 0.360850 0.800312 0.457145
O O10 0.896572 0.896572 0.177053
O O11 0.789643 0.045849 0.142009
O O12 0.666988 0.666988 0.966654
O O13 0.500000 0.676953 0.000000
O O14 0.586578 0.823936 0.974186
O O15 0.220386 0.779615 0.117893
O O16 0.266087 0.903586 0.053171
O O17 0.877533 0.500000 0.500000
#
# Coordination Sequence:
#
# PCOD9560592 Si02
#       7
#    16  16  16  16  16  16  16
#     4  11  22  40  65  96 131 165 217 284 337 390
#     4  11  22  40  67  94 129 171 217 273 333 393
#     4  11  22  39  63  96 135 168 206 266 336 399
#     4  11  24  42  64  93 128 174 215 264 335 398
#     4  11  24  41  61  93 132 171 212 261 322 393
#     4  11  24  42  63  92 129 170 216 269 318 384
#     4  11  21  38  62  92 124 165 206 263 321 388
#
# _framework density 19.771963
#
# number of rings (size 3 to 8) (size 9 to 14) (size 15 to 20)
#    0.000    1.000    5.714    2.571    0.000    2.429 
#    0.000    0.714    0.000    1.286    0.000    2.000 
#    0.000    0.000    0.000    0.000    0.000    0.000 
#
# Total GULP energy -312088.958578 kJ/mol
# GULP energy per Si atom -5573.017117 kJ/mol
# Density = 1.972696 g / cm^3
# Si number density = 19.771963 Si / 1000 Ang^3
#
#
#
# Elastic Constant Matrix: (Units=GPa)
#
#
# Indices 1 2 3 4 5 6 
#
# 1 69.0460 45.9875 38.8016 0.0000 0.0000 0.0000
# 2 45.9875 69.0496 38.8021 0.0000 0.0000 0.0000
# 3 38.8016 38.8021 180.3196 0.0000 0.0000 0.0000
# 4 0.0000 0.0000 0.0000 45.7978 0.0000 0.0000
# 5 0.0000 0.0000 0.0000 0.0000 45.8064 0.0000
# 6 0.0000 0.0000 0.0000 0.0000 0.0000 -7.2193
#
#
#
# Elastic Compliance Matrix: (Units=1/GPa)
#
#
# Indices 1 2 3 4 5 6 
#
# 1 0.026768 -0.016598 -0.002188 0.000000 0.000000 0.000000
# 2 -0.016598 0.026766 -0.002188 0.000000 0.000000 0.000000
# 3 -0.002188 -0.002188 0.006487 0.000000 0.000000 0.000000
# 4 0.000000 0.000000 0.000000 0.021835 0.000000 0.000000
# 5 0.000000 0.000000 0.000000 0.000000 0.021831 0.000000
# 6 0.000000 0.000000 0.000000 0.000000 0.000000 -0.138517
#
#
# Mechanical properties :
#
#
# Convention : Reuss Voigt Hill
#
# Bulk Modulus (GPa) = 55.33156 62.84417 59.08787
# Shear Modulus (GPa) = 380.44108 29.86524 205.15316
#
# Velocity S-wave (km/s) = 13.88640 3.89071 10.19730
# Velocity P-wave (km/s) = 16.88654 7.21367 12.98445
#
# Compressibility (1/GPa) = 0.01807287
#
# Stress axis : x y z
#
# Youngs Moduli (GPa) = 37.35860 37.36065 154.14355
#
# Poissons Ratio (x) = 0.62010 0.33732
# Poissons Ratio (y) = 0.62007 0.33729
# Poissons Ratio (z) = 0.08175 0.08175
#
# Static dielectric constant tensor:
#      x y z
#    x 1.710370 0.000000 0.000000 
#    y 0.000000 1.710360 0.000000 
#    z 0.000000 0.000000 1.739280 
# 
# From -- ./inp_files/7752.got.cif
#   From: 2010.05.17/outbox.cif.g08.bks.cpg/sg121_4_cif.got.tgz:7752.got - 2010.05.20 11:32:06.
