data_PCOD9560438
_publ_section_title
;
Structure prediction by ZEFSAII (Michael W. Deem and Ramdas Pophale) SiO2 
 PCOD9560438
Probable space group: I -4 2 M
;
_chemical_formula_sum "Si O2"
_cell_formula_units_Z 96
_cell_length_a 18.983522
_cell_length_b 18.983522
_cell_length_c 13.831175
_cell_angle_alpha 90.000000
_cell_angle_beta 90.000000
_cell_angle_gamma 90.000000
_cell_volume 4984.397347
_symmetry_space_group_name_H-M "I -4 2 M"
_symmetry_group_IT_number 121
_symmetry_cell_setting 'tetragonal'
loop_
_space_group_symop_operation_xyz
x,y,z
y,-x,-z
-x,-y,z
-y,x,-z
x,-y,-z
-x,y,-z
-y,-x,z
y,x,z
1/2+x,1/2+y,1/2+z
1/2+y,1/2-x,1/2-z
1/2-x,1/2-y,1/2+z
1/2-y,1/2+x,1/2-z
1/2+x,1/2-y,1/2-z
1/2-x,1/2+y,1/2-z
1/2-y,1/2-x,1/2+z
1/2+y,1/2+x,1/2+z
loop_
_atom_site_type_symbol
_atom_site_label
_atom_site_fract_x
_atom_site_fract_y
_atom_site_fract_z
Si Si1 0.642391 0.247297 0.958264
Si Si2 0.804658 0.079673 0.265062
Si Si3 0.481615 0.794241 0.601657
Si Si4 0.113505 0.462932 0.752718
Si Si5 0.956487 0.846600 0.409351
Si Si6 0.385580 0.076387 0.458400
O O1 0.719944 0.280057 0.977242
O O2 0.624042 0.264108 0.847420
O O3 0.590225 0.289180 0.032112
O O4 0.619692 0.168110 0.976695
O O5 0.874924 0.125077 0.241861
O O6 0.756132 0.063022 0.172543
O O7 0.821650 0.008495 0.325257
O O8 0.500000 0.758038 0.500000
O O9 0.541780 0.828051 0.669893
O O10 0.443922 0.866630 0.568087
O O11 0.084030 0.543416 0.763232
O O12 0.147407 0.442921 0.854555
O O13 0.903628 0.903628 0.367888
O O14 0.000000 0.878067 0.500000
O O15 0.408366 0.000000 0.500000
#
# Coordination Sequence:
#
# PCOD9560438 Si02
#       6
#    16  16  16  16  16  16
#     4   9  18  33  55  83 112 140 172 216 276 337
#     4  10  21  37  54  74 107 146 180 221 275 329
#     4  11  23  36  52  74 105 143 184 223 265 319
#     4   9  18  32  51  78 108 135 167 212 269 326
#     4   9  16  29  55  88 115 137 170 225 286 334
#     4  11  20  33  57  81 106 137 176 225 277 328
#
# _framework density 19.260102
#
# number of rings (size 3 to 8) (size 9 to 14) (size 15 to 20)
#    0.000    2.167    0.000    6.000    0.000    4.833 
#    0.000    0.833    0.000    3.000    0.000    0.000 
#    0.000    0.000    0.000    0.000    0.000    0.000 
#
# Total GULP energy -267237.895099 kJ/mol
# GULP energy per Si atom -5567.456148 kJ/mol
# Density = 1.921627 g / cm^3
# Si number density = 19.260102 Si / 1000 Ang^3
#
#
#
# Elastic Constant Matrix: (Units=GPa)
#
#
# Indices 1 2 3 4 5 6 
#
# 1 47.8024 22.5609 42.4737 0.0000 0.0000 0.0000
# 2 22.5609 47.8065 42.4768 0.0000 0.0000 0.0000
# 3 42.4737 42.4768 131.4651 0.0000 0.0000 0.0000
# 4 0.0000 0.0000 0.0000 23.4570 0.0000 0.0000
# 5 0.0000 0.0000 0.0000 0.0000 23.4572 0.0000
# 6 0.0000 0.0000 0.0000 0.0000 0.0000 17.3063
#
#
#
# Elastic Compliance Matrix: (Units=1/GPa)
#
#
# Indices 1 2 3 4 5 6 
#
# 1 0.031458 -0.008157 -0.007528 0.000000 0.000000 0.000000
# 2 -0.008157 0.031456 -0.007528 0.000000 0.000000 0.000000
# 3 -0.007528 -0.007528 0.012471 0.000000 0.000000 0.000000
# 4 0.000000 0.000000 0.000000 0.042631 0.000000 0.000000
# 5 0.000000 0.000000 0.000000 0.000000 0.042631 0.000000
# 6 0.000000 0.000000 0.000000 0.000000 0.000000 0.057782
#
#
# Mechanical properties :
#
#
# Convention : Reuss Voigt Hill
#
# Bulk Modulus (GPa) = 34.53171 49.12187 41.82679
# Shear Modulus (GPa) = 18.21436 20.81494 19.51465
#
# Velocity S-wave (km/s) = 3.07857 3.29101 3.18656
# Velocity P-wave (km/s) = 5.53216 6.32462 5.94162
#
# Compressibility (1/GPa) = 0.02895889
#
# Stress axis : x y z
#
# Youngs Moduli (GPa) = 31.78844 31.79033 80.18561
#
# Poissons Ratio (x) = 0.25932 0.60363
# Poissons Ratio (y) = 0.25930 0.60365
# Poissons Ratio (z) = 0.23930 0.23932
#
# Static dielectric constant tensor:
#      x y z
#    x 1.743620 0.000000 0.000000 
#    y 0.000000 1.743610 0.000000 
#    z 0.000000 0.000000 1.739640 
# 
# From -- ./inp_files/3346.got.cif
#   From: 2010.05.17/outbox.cif.g08.bks.cpg/sg121_2_cif.got.tgz:3346.got - 2010.05.20 11:32:06.
