data_PCOD9560028
_publ_section_title
;
Structure prediction by ZEFSAII (Michael W. Deem and Ramdas Pophale) SiO2 
 PCOD9560028
Probable space group: I -4 C 2
;
_chemical_formula_sum "Si O2"
_cell_formula_units_Z 72
_cell_length_a 16.642776
_cell_length_b 16.642776
_cell_length_c 11.937276
_cell_angle_alpha 90.000000
_cell_angle_beta 90.000000
_cell_angle_gamma 90.000000
_cell_volume 3306.410497
_symmetry_space_group_name_H-M "I -4 C 2"
_symmetry_group_IT_number 120
_symmetry_cell_setting 'tetragonal'
loop_
_space_group_symop_operation_xyz
x,y,z
y,-x,-z
-x,-y,z
-y,x,-z
y,x,1/2-z
-y,-x,1/2-z
-x,y,1/2+z
x,-y,1/2+z
1/2+x,1/2+y,1/2+z
1/2+y,1/2-x,1/2-z
1/2-x,1/2-y,1/2+z
1/2-y,1/2+x,1/2-z
1/2+y,1/2+x,-z
1/2-y,1/2-x,-z
1/2-x,1/2+y,z
1/2+x,1/2-y,z
loop_
_atom_site_type_symbol
_atom_site_label
_atom_site_fract_x
_atom_site_fract_y
_atom_site_fract_z
Si Si1 0.825922 0.636842 0.182368
Si Si2 0.013934 0.112636 0.547060
Si Si3 0.049085 0.584506 0.124246
Si Si4 0.861081 0.861081 0.750000
Si Si5 0.716513 0.936114 0.456905
O O1 0.885392 0.611280 0.282119
O O2 0.733403 0.632562 0.219736
O O3 0.853846 0.718440 0.117025
O O4 0.826604 0.576010 0.076414
O O5 0.077510 0.118581 0.648538
O O6 0.932613 0.059017 0.555909
O O7 0.980751 0.200753 0.524623
O O8 0.000000 0.500000 0.137346
O O9 0.988070 0.658111 0.118584
O O10 0.084747 0.584747 0.000000
#
# Coordination Sequence:
#
# PCOD9560028 Si02
#       5
#    16  16  16   8  16
#     4  11  25  45  73 107 155 205 248 326 403 471
#     4  11  25  49  80 111 150 206 270 334 391 475
#     4  11  25  42  72 112 151 202 256 311 388 486
#     4  12  24  51  76 110 158 203 266 334 406 478
#     4  11  25  47  73 104 157 199 256 330 385 476
#
# _framework density 21.775880999999998
#
# number of rings (size 3 to 8) (size 9 to 14) (size 15 to 20)
#    0.000    0.889    4.444    2.667    6.222    2.667 
#    8.000    2.222    0.000    0.000    0.000    0.000 
#    0.000    0.000    0.000    0.000    0.000    0.000 
#
# Total GULP energy -200537.985775 kJ/mol
# GULP energy per Si atom -5570.499605 kJ/mol
# Density = 2.172632 g / cm^3
# Si number density = 21.775881 Si / 1000 Ang^3
#
#
#
# Elastic Constant Matrix: (Units=GPa)
#
#
# Indices 1 2 3 4 5 6 
#
# 1 111.2958 43.0342 50.9159 0.0000 0.0000 0.0000
# 2 43.0342 111.2958 50.9159 0.0000 0.0000 0.0000
# 3 50.9159 50.9159 155.6530 0.0000 0.0000 0.0000
# 4 0.0000 0.0000 0.0000 31.4048 0.0000 0.0000
# 5 0.0000 0.0000 0.0000 0.0000 31.4048 0.0000
# 6 0.0000 0.0000 0.0000 0.0000 0.0000 33.4239
#
#
#
# Elastic Compliance Matrix: (Units=1/GPa)
#
#
# Indices 1 2 3 4 5 6 
#
# 1 0.011456 -0.003193 -0.002703 0.000000 0.000000 0.000000
# 2 -0.003193 0.011456 -0.002703 0.000000 0.000000 0.000000
# 3 -0.002703 -0.002703 0.008193 0.000000 0.000000 0.000000
# 4 0.000000 0.000000 0.000000 0.031842 0.000000 0.000000
# 5 0.000000 0.000000 0.000000 0.000000 0.031842 0.000000
# 6 0.000000 0.000000 0.000000 0.000000 0.000000 0.029919
#
#
# Mechanical properties :
#
#
# Convention : Reuss Voigt Hill
#
# Bulk Modulus (GPa) = 71.90479 74.21964 73.06221
# Shear Modulus (GPa) = 34.11971 34.80526 34.46248
#
# Velocity S-wave (km/s) = 3.96265 4.00226 3.98250
# Velocity P-wave (km/s) = 7.35043 7.45083 7.40080
#
# Compressibility (1/GPa) = 0.01390728
#
# Stress axis : x y z
#
# Youngs Moduli (GPa) = 87.28805 87.28805 122.05705
#
# Poissons Ratio (x) = 0.27873 0.32992
# Poissons Ratio (y) = 0.27873 0.32992
# Poissons Ratio (z) = 0.23594 0.23594
#
# Static dielectric constant tensor:
#      x y z
#    x 1.883130 0.000000 0.000000 
#    y 0.000000 1.883130 0.000000 
#    z 0.000000 0.000000 1.799130 
# 
# From -- ./inp_files/2435.got.cif
#   From: 2010.05.17/outbox.cif.g08.bks.cpg/sg120_2_cif.got.tgz:2435.got - 2010.05.20 11:28:13.
