data_PCOD9560433
_publ_section_title
;
Structure prediction by ZEFSAII (Michael W. Deem and Ramdas Pophale) SiO2 
 PCOD9560433
Probable space group: I -4 2 M
;
_chemical_formula_sum "Si O2"
_cell_formula_units_Z 48
_cell_length_a 9.412180
_cell_length_b 9.412180
_cell_length_c 27.953742
_cell_angle_alpha 90.000000
_cell_angle_beta 90.000000
_cell_angle_gamma 90.000000
_cell_volume 2476.397750
_symmetry_space_group_name_H-M "I -4 2 M"
_symmetry_group_IT_number 121
_symmetry_cell_setting 'tetragonal'
loop_
_space_group_symop_operation_xyz
x,y,z
y,-x,-z
-x,-y,z
-y,x,-z
x,-y,-z
-x,y,-z
-y,-x,z
y,x,z
1/2+x,1/2+y,1/2+z
1/2+y,1/2-x,1/2-z
1/2-x,1/2-y,1/2+z
1/2-y,1/2+x,1/2-z
1/2+x,1/2-y,1/2-z
1/2-x,1/2+y,1/2-z
1/2-y,1/2-x,1/2+z
1/2+y,1/2+x,1/2+z
loop_
_atom_site_type_symbol
_atom_site_label
_atom_site_fract_x
_atom_site_fract_y
_atom_site_fract_z
Si Si1 0.353190 0.877151 0.529304
Si Si2 0.928744 0.298298 0.271730
Si Si3 0.993420 0.764110 0.619998
O O1 0.500000 0.858468 0.500000
O O2 0.267677 0.732324 0.529925
O O3 0.271288 0.000000 0.500000
O O4 0.348561 0.944013 0.582315
O O5 0.848494 0.151506 0.261326
O O6 0.825637 0.428143 0.257732
O O7 0.964669 0.299728 0.327896
O O8 0.849662 0.849662 0.604835
O O9 0.115061 0.884940 0.624494
#
# Coordination Sequence:
#
# PCOD9560433 Si02
#       3
#    16  16  16
#     4  10  21  36  57  84 112 144 185 233 283 336
#     4  10  21  36  57  85 116 151 192 239 288 338
#     4   9  18  35  59  85 115 153 195 236 282 342
#
# _framework density 19.382992000000002
#
# number of rings (size 3 to 8) (size 9 to 14) (size 15 to 20)
#    0.000    2.333    0.000    2.000    0.000    9.333 
#    0.000    0.000    0.000    4.000    0.000   23.333 
#    0.000    0.000    0.000    0.000    0.000    0.000 
#
# Total GULP energy -133700.885670 kJ/mol
# GULP energy per Si atom -5570.870236 kJ/mol
# Density = 1.933888 g / cm^3
# Si number density = 19.382992 Si / 1000 Ang^3
#
#
#
# Elastic Constant Matrix: (Units=GPa)
#
#
# Indices 1 2 3 4 5 6 
#
# 1 92.1717 48.3382 66.9591 0.0000 0.0000 0.0000
# 2 48.3382 92.1773 66.9598 0.0000 0.0000 0.0000
# 3 66.9591 66.9598 133.4484 0.0000 0.0000 0.0000
# 4 0.0000 0.0000 0.0000 36.2084 0.0000 0.0000
# 5 0.0000 0.0000 0.0000 0.0000 36.2070 0.0000
# 6 0.0000 0.0000 0.0000 0.0000 0.0000 22.5457
#
#
#
# Elastic Compliance Matrix: (Units=1/GPa)
#
#
# Indices 1 2 3 4 5 6 
#
# 1 0.018227 -0.004586 -0.006844 0.000000 0.000000 0.000000
# 2 -0.004586 0.018225 -0.006843 0.000000 0.000000 0.000000
# 3 -0.006844 -0.006843 0.014361 0.000000 0.000000 0.000000
# 4 0.000000 0.000000 0.000000 0.027618 0.000000 0.000000
# 5 0.000000 0.000000 0.000000 0.000000 0.027619 0.000000
# 6 0.000000 0.000000 0.000000 0.000000 0.000000 0.044354
#
#
# Mechanical properties :
#
#
# Convention : Reuss Voigt Hill
#
# Bulk Modulus (GPa) = 70.10059 75.81241 72.95650
# Shear Modulus (GPa) = 26.08149 28.02825 27.05487
#
# Velocity S-wave (km/s) = 3.67220 3.80679 3.74010
# Velocity P-wave (km/s) = 7.36374 7.64983 7.50815
#
# Compressibility (1/GPa) = 0.01426521
#
# Stress axis : x y z
#
# Youngs Moduli (GPa) = 54.86508 54.86974 69.63113
#
# Poissons Ratio (x) = 0.25165 0.47656
# Poissons Ratio (y) = 0.25163 0.47651
# Poissons Ratio (z) = 0.37550 0.37550
#
# Static dielectric constant tensor:
#      x y z
#    x 1.707470 0.000000 0.000000 
#    y 0.000000 1.707470 0.000000 
#    z 0.000000 0.000000 1.701520 
# 
# From -- ./inp_files/7833.got.cif
#   From: 2010.05.17/outbox.cif.g08.bks.cpg/sg121_4_cif.got.tgz:7833.got - 2010.05.20 11:32:06.
