data_PCOD9560734
_publ_section_title
;
Structure prediction by ZEFSAII (Michael W. Deem and Ramdas Pophale) SiO2 
 PCOD9560734
Probable space group: I -4 2 D
;
_chemical_formula_sum "Si O2"
_cell_formula_units_Z 80
_cell_length_a 17.712200
_cell_length_b 17.712200
_cell_length_c 14.610585
_cell_angle_alpha 90.000000
_cell_angle_beta 90.000000
_cell_angle_gamma 90.000000
_cell_volume 4583.662369
_symmetry_space_group_name_H-M "I -4 2 D"
_symmetry_group_IT_number 122
_symmetry_cell_setting 'tetragonal'
loop_
_space_group_symop_operation_xyz
x,y,z
y,-x,-z
-x,-y,z
-y,x,-z
x,1/2-y,1/4-z
-x,1/2+y,1/4-z
-y,1/2-x,1/4+z
y,1/2+x,1/4+z
1/2+x,1/2+y,1/2+z
1/2+y,1/2-x,1/2-z
1/2-x,1/2-y,1/2+z
1/2-y,1/2+x,1/2-z
1/2+x,-y,3/4-z
1/2-x,y,3/4-z
1/2-y,-x,3/4+z
1/2+y,x,3/4+z
loop_
_atom_site_type_symbol
_atom_site_label
_atom_site_fract_x
_atom_site_fract_y
_atom_site_fract_z
Si Si1 0.807190 0.561630 0.187649
Si Si2 0.392305 0.936471 0.259269
Si Si3 0.582269 0.737789 0.343928
Si Si4 0.915843 0.805925 0.043277
Si Si5 0.165570 0.328857 0.578308
O O1 0.795568 0.502490 0.104733
O O2 0.880618 0.613135 0.185804
O O3 0.809487 0.505511 0.274496
O O4 0.735479 0.616221 0.187355
O O5 0.473504 0.903523 0.229287
O O6 0.324953 0.922401 0.186758
O O7 0.366660 0.894670 0.352297
O O8 0.615303 0.725305 0.445789
O O9 0.627067 0.692858 0.267123
O O10 0.898156 0.750000 0.125000
O O11 0.190392 0.250000 0.625000
#
# Coordination Sequence:
#
# PCOD9560734 Si02
#       5
#    16  16  16  16  16
#     4  10  22  41  57  85 117 154 203 249 291 367
#     4  10  18  35  60  90 123 154 189 242 300 361
#     4   9  22  36  57  89 111 158 195 237 302 348
#     4  10  23  38  61  81 117 156 200 247 294 344
#     4  10  20  37  62  85 122 153 192 247 299 361
#
# _framework density 17.453292000000001
#
# number of rings (size 3 to 8) (size 9 to 14) (size 15 to 20)
#    1.200    1.000    2.000    0.600    2.800    2.000 
#    0.000    0.000    0.000    0.000    0.000    0.000 
#    0.000    0.000    0.000    0.000    0.000    0.000 
#
# Total GULP energy -222730.773770 kJ/mol
# GULP energy per Si atom -5568.269344 kJ/mol
# Density = 1.741357 g / cm^3
# Si number density = 17.453292 Si / 1000 Ang^3
#
#
#
# Elastic Constant Matrix: (Units=GPa)
#
#
# Indices 1 2 3 4 5 6 
#
# 1 74.2874 34.8804 43.5781 0.0000 0.0000 0.0000
# 2 34.8804 74.2874 43.5781 0.0000 0.0000 0.0000
# 3 43.5781 43.5781 93.7576 0.0000 0.0000 0.0000
# 4 0.0000 0.0000 0.0000 15.8871 0.0000 0.0000
# 5 0.0000 0.0000 0.0000 0.0000 15.8871 0.0000
# 6 0.0000 0.0000 0.0000 0.0000 0.0000 12.7646
#
#
#
# Elastic Compliance Matrix: (Units=1/GPa)
#
#
# Indices 1 2 3 4 5 6 
#
# 1 0.019971 -0.005406 -0.006770 0.000000 0.000000 0.000000
# 2 -0.005406 0.019971 -0.006770 0.000000 0.000000 0.000000
# 3 -0.006770 -0.006770 0.016959 0.000000 0.000000 0.000000
# 4 0.000000 0.000000 0.000000 0.062944 0.000000 0.000000
# 5 0.000000 0.000000 0.000000 0.000000 0.062944 0.000000
# 6 0.000000 0.000000 0.000000 0.000000 0.000000 0.078342
#
#
# Mechanical properties :
#
#
# Convention : Reuss Voigt Hill
#
# Bulk Modulus (GPa) = 52.60425 54.04510 53.32467
# Shear Modulus (GPa) = 16.37425 16.92745 16.65085
#
# Velocity S-wave (km/s) = 3.06629 3.11765 3.09208
# Velocity P-wave (km/s) = 6.53771 6.63268 6.58537
#
# Compressibility (1/GPa) = 0.01900987
#
# Stress axis : x y z
#
# Youngs Moduli (GPa) = 50.07367 50.07367 58.96614
#
# Poissons Ratio (x) = 0.27068 0.39918
# Poissons Ratio (y) = 0.27068 0.39918
# Poissons Ratio (z) = 0.33899 0.33899
#
# Static dielectric constant tensor:
#      x y z
#    x 1.589150 0.000000 0.000000 
#    y 0.000000 1.589150 0.000000 
#    z 0.000000 0.000000 1.581640 
# 
# From -- ./inp_files/5308.got.cif
#   From: 2010.05.17/outbox.cif.g08.bks.cpg/sg122_3_cif.got.tgz:5308.got - 2010.05.20 11:37:33.
