data_PCOD9560280
_publ_section_title
;
Structure prediction by ZEFSAII (Michael W. Deem and Ramdas Pophale) SiO2 
 PCOD9560280
Probable space group: I -4 2 M
;
_chemical_formula_sum "Si O2"
_cell_formula_units_Z 96
_cell_length_a 20.924024
_cell_length_b 20.924024
_cell_length_c 11.252996
_cell_angle_alpha 90.000000
_cell_angle_beta 90.000000
_cell_angle_gamma 90.000000
_cell_volume 4926.727972
_symmetry_space_group_name_H-M "I -4 2 M"
_symmetry_group_IT_number 121
_symmetry_cell_setting 'tetragonal'
loop_
_space_group_symop_operation_xyz
x,y,z
y,-x,-z
-x,-y,z
-y,x,-z
x,-y,-z
-x,y,-z
-y,-x,z
y,x,z
1/2+x,1/2+y,1/2+z
1/2+y,1/2-x,1/2-z
1/2-x,1/2-y,1/2+z
1/2-y,1/2+x,1/2-z
1/2+x,1/2-y,1/2-z
1/2-x,1/2+y,1/2-z
1/2-y,1/2-x,1/2+z
1/2+y,1/2+x,1/2+z
loop_
_atom_site_type_symbol
_atom_site_label
_atom_site_fract_x
_atom_site_fract_y
_atom_site_fract_z
Si Si1 0.653420 0.981232 0.781066
Si Si2 0.235268 0.941572 0.795021
Si Si3 0.257939 0.257939 0.505899
Si Si4 0.798181 0.604504 0.469281
Si Si5 0.068493 0.427069 0.565864
Si Si6 0.704318 0.295683 0.234728
Si Si7 0.894667 0.002129 0.142922
O O1 0.700301 0.931605 0.845494
O O2 0.612890 0.947916 0.682168
O O3 0.701737 0.033465 0.727505
O O4 0.603324 0.009952 0.877954
O O5 0.217922 0.870234 0.756996
O O6 0.172292 0.985444 0.795195
O O7 0.263546 0.936493 0.928867
O O8 0.238161 0.329435 0.472019
O O9 0.258543 0.258543 0.653633
O O10 0.219038 0.219038 0.403903
O O11 0.873665 0.609635 0.500405
O O12 0.000000 0.433625 0.500000
O O13 0.931352 0.068649 0.170901
O O14 0.945380 0.945380 0.169540
O O15 0.884683 0.000000 0.000000
#
# Coordination Sequence:
#
# PCOD9560280 Si02
#       7
#    16  16   8  16  16   8  16
#     4  11  24  38  59  85 118 154 205 250 309 376
#     4  10  19  37  55  84 119 156 200 248 313 369
#     4  10  24  40  66  90 120 162 218 248 314 368
#     4  10  23  39  59  84 117 159 199 260 302 376
#     4  11  24  39  60  86 120 158 202 257 316 371
#     4  10  22  38  65  86 122 170 203 262 308 370
#     4   9  16  27  49  78 112 150 192 238 304 381
#
# _framework density 19.48555
#
# number of rings (size 3 to 8) (size 9 to 14) (size 15 to 20)
#    0.000    1.833    0.833    4.500    9.333    4.333 
#    1.500    0.000    0.000    0.000    0.000    0.000 
#    0.000    0.000    0.000   12.000    0.000    0.000 
#
# Total GULP energy -267423.678805 kJ/mol
# GULP energy per Si atom -5571.326642 kJ/mol
# Density = 1.944120 g / cm^3
# Si number density = 19.485550 Si / 1000 Ang^3
#
#
#
# Elastic Constant Matrix: (Units=GPa)
#
#
# Indices 1 2 3 4 5 6 
#
# 1 103.0921 44.8076 13.9953 0.0000 0.0000 0.0000
# 2 44.8076 103.0911 13.9955 0.0000 0.0000 0.0000
# 3 13.9953 13.9955 27.6376 0.0000 0.0000 0.0000
# 4 0.0000 0.0000 0.0000 11.3812 0.0000 0.0000
# 5 0.0000 0.0000 0.0000 0.0000 11.3808 0.0000
# 6 0.0000 0.0000 0.0000 0.0000 0.0000 43.0053
#
#
#
# Elastic Compliance Matrix: (Units=1/GPa)
#
#
# Indices 1 2 3 4 5 6 
#
# 1 0.012318 -0.004840 -0.003787 0.000000 0.000000 0.000000
# 2 -0.004840 0.012318 -0.003787 0.000000 0.000000 0.000000
# 3 -0.003787 -0.003787 0.040018 0.000000 0.000000 0.000000
# 4 0.000000 0.000000 0.000000 0.087864 0.000000 0.000000
# 5 0.000000 0.000000 0.000000 0.000000 0.087867 0.000000
# 6 0.000000 0.000000 0.000000 0.000000 0.000000 0.023253
#
#
# Mechanical properties :
#
#
# Convention : Reuss Voigt Hill
#
# Bulk Modulus (GPa) = 25.10881 42.15750 33.63316
# Shear Modulus (GPa) = 16.57058 23.88829 20.22943
#
# Velocity S-wave (km/s) = 2.91933 3.50515 3.22557
# Velocity P-wave (km/s) = 4.92719 6.16958 5.58305
#
# Compressibility (1/GPa) = 0.03982666
#
# Stress axis : x y z
#
# Youngs Moduli (GPa) = 81.18446 81.18355 24.98888
#
# Poissons Ratio (x) = 0.39290 0.09463
# Poissons Ratio (y) = 0.39291 0.09463
# Poissons Ratio (z) = 0.30742 0.30743
#
# Static dielectric constant tensor:
#      x y z
#    x 1.710490 0.000000 0.000000 
#    y 0.000000 1.710490 0.000000 
#    z 0.000000 0.000000 1.717530 
# 
# From -- ./inp_files/3357.got.cif
#   From: 2010.05.17/outbox.cif.g08.bks.cpg/sg121_2_cif.got.tgz:3357.got - 2010.05.20 11:32:06.
