data_PCOD9560782
_publ_section_title
;
Structure prediction by ZEFSAII (Michael W. Deem and Ramdas Pophale) SiO2 
 PCOD9560782
Probable space group: I -4 2 D
;
_chemical_formula_sum "Si O2"
_cell_formula_units_Z 80
_cell_length_a 11.399993
_cell_length_b 11.399993
_cell_length_c 25.717837
_cell_angle_alpha 90.000000
_cell_angle_beta 90.000000
_cell_angle_gamma 90.000000
_cell_volume 3342.285992
_symmetry_space_group_name_H-M "I -4 2 D"
_symmetry_group_IT_number 122
_symmetry_cell_setting 'tetragonal'
loop_
_space_group_symop_operation_xyz
x,y,z
y,-x,-z
-x,-y,z
-y,x,-z
x,1/2-y,1/4-z
-x,1/2+y,1/4-z
-y,1/2-x,1/4+z
y,1/2+x,1/4+z
1/2+x,1/2+y,1/2+z
1/2+y,1/2-x,1/2-z
1/2-x,1/2-y,1/2+z
1/2-y,1/2+x,1/2-z
1/2+x,-y,3/4-z
1/2-x,y,3/4-z
1/2-y,-x,3/4+z
1/2+y,x,3/4+z
loop_
_atom_site_type_symbol
_atom_site_label
_atom_site_fract_x
_atom_site_fract_y
_atom_site_fract_z
Si Si1 0.157034 0.813935 0.267429
Si Si2 0.037661 0.219659 0.909154
Si Si3 0.663538 0.281834 0.331267
Si Si4 0.043726 0.871655 0.164913
Si Si5 0.468771 0.870134 0.092615
O O1 0.289733 0.775245 0.279224
O O2 0.131336 0.822923 0.207268
O O3 0.063599 0.724675 0.296182
O O4 0.136518 0.940434 0.294557
O O5 0.109320 0.103418 0.891777
O O6 0.116667 0.331609 0.920675
O O7 0.963746 0.238402 0.855175
O O8 0.750000 0.229789 0.375000
O O9 0.691688 0.419466 0.329832
O O10 0.000000 0.000000 0.181904
O O11 0.480546 0.750000 0.125000
O O12 0.500000 0.000000 0.117129
#
# Coordination Sequence:
#
# PCOD9560782 Si02
#       5
#    16  16  16  16  16
#     4  10  19  38  62  86 123 171 210 267 337 397
#     4   9  19  36  58  87 119 165 210 262 326 386
#     4   9  19  38  61  80 121 166 206 263 334 385
#     4  10  20  37  58  90 123 165 220 268 320 400
#     4  10  19  35  61  90 123 164 209 258 331 406
#
# _framework density 23.935711999999999
#
# number of rings (size 3 to 8) (size 9 to 14) (size 15 to 20)
#    0.000    2.400    0.000    4.800    0.000    0.800 
#   18.000    0.000    0.000    0.000    0.000    0.000 
#    0.000    0.000    0.000    0.000    0.000    0.000 
#
# Total GULP energy -222898.973125 kJ/mol
# GULP energy per Si atom -5572.474328 kJ/mol
# Density = 2.388123 g / cm^3
# Si number density = 23.935712 Si / 1000 Ang^3
#
#
#
# Elastic Constant Matrix: (Units=GPa)
#
#
# Indices 1 2 3 4 5 6 
#
# 1 100.2696 3.4859 16.5048 0.0000 0.0000 0.0000
# 2 3.4859 100.2696 16.5048 0.0000 0.0000 0.0000
# 3 16.5048 16.5048 51.7261 0.0000 0.0000 0.0000
# 4 0.0000 0.0000 0.0000 30.0512 0.0000 0.0000
# 5 0.0000 0.0000 0.0000 0.0000 30.0512 0.0000
# 6 0.0000 0.0000 0.0000 0.0000 0.0000 42.6639
#
#
#
# Elastic Compliance Matrix: (Units=1/GPa)
#
#
# Indices 1 2 3 4 5 6 
#
# 1 0.010530 0.000197 -0.003423 0.000000 0.000000 0.000000
# 2 0.000197 0.010530 -0.003423 0.000000 0.000000 0.000000
# 3 -0.003423 -0.003423 0.021517 0.000000 0.000000 0.000000
# 4 0.000000 0.000000 0.000000 0.033277 0.000000 0.000000
# 5 0.000000 0.000000 0.000000 0.000000 0.033277 0.000000
# 6 0.000000 0.000000 0.000000 0.000000 0.000000 0.023439
#
#
# Mechanical properties :
#
#
# Convention : Reuss Voigt Hill
#
# Bulk Modulus (GPa) = 34.15327 36.13958 35.14642
# Shear Modulus (GPa) = 32.12859 34.93792 33.53326
#
# Velocity S-wave (km/s) = 3.66770 3.82469 3.74702
# Velocity P-wave (km/s) = 5.67765 5.88521 5.78236
#
# Compressibility (1/GPa) = 0.02927977
#
# Stress axis : x y z
#
# Youngs Moduli (GPa) = 94.96990 94.96990 46.47512
#
# Poissons Ratio (x) = -0.01874 0.15907
# Poissons Ratio (y) = -0.01874 0.15907
# Poissons Ratio (z) = 0.32506 0.32506
#
# Static dielectric constant tensor:
#      x y z
#    x 2.018360 0.000000 0.000000 
#    y 0.000000 2.018360 0.000000 
#    z 0.000000 0.000000 1.970210 
# 
# From -- ./inp_files/9358.got.cif
#   From: 2010.05.17/outbox.cif.g08.bks.cpg/sg122_5_cif.got.tgz:9358.got - 2010.05.20 11:37:33.
