data_PCOD9561998
_publ_section_title
;
Structure prediction by ZEFSAII (Michael W. Deem and Ramdas Pophale) SiO2 
 PCOD9561998
Probable space group: P 4/M M M
;
_chemical_formula_sum "Si O2"
_cell_formula_units_Z 52
_cell_length_a 20.220419
_cell_length_b 20.220419
_cell_length_c 7.268324
_cell_angle_alpha 90.000000
_cell_angle_beta 90.000000
_cell_angle_gamma 90.000000
_cell_volume 2971.765796
_symmetry_space_group_name_H-M "P 4/M M M"
_symmetry_group_IT_number 123
_symmetry_cell_setting 'tetragonal'
loop_
_space_group_symop_operation_xyz
x,y,z
-y,x,z
-x,-y,z
y,-x,z
x,-y,-z
-x,y,-z
y,x,-z
-y,-x,-z
-x,-y,-z
y,-x,-z
x,y,-z
-y,x,-z
-x,y,z
x,-y,z
-y,-x,z
y,x,z
loop_
_atom_site_type_symbol
_atom_site_label
_atom_site_fract_x
_atom_site_fract_y
_atom_site_fract_z
Si Si1 0.769069 0.429429 0.000000
Si Si2 0.707890 0.292111 0.000000
Si Si3 0.072345 0.278924 0.277290
Si Si4 0.112392 0.426695 0.720604
Si Si5 0.791543 0.208458 0.722072
O O1 0.817932 0.425653 0.175163
O O2 0.735116 0.500000 0.000000
O O3 0.722002 0.368470 0.000000
O O4 0.742005 0.257996 0.823766
O O5 0.072864 0.278272 0.500000
O O6 0.079583 0.356725 0.224758
O O7 0.134930 0.233765 0.222603
O O8 0.000000 0.255244 0.216621
O O9 0.118702 0.424839 0.500000
O O10 0.082521 0.500000 0.765244
O O11 0.787099 0.212902 0.500000
#
# Coordination Sequence:
#
# PCOD9561998 Si02
#       5
#     8   4  16  16   8
#     4  10  20  32  48  74 102 126 160 202 240 286
#     4  12  20  32  56  75  94 133 168 196 248 286
#     4   9  17  30  49  71  97 131 165 201 246 289
#     4   9  17  30  47  69 100 132 159 191 237 293
#     4  10  20  34  50  73  99 125 167 212 242 287
#
# _framework density 17.498014999999999
#
# number of rings (size 3 to 8) (size 9 to 14) (size 15 to 20)
#    0.000    2.462    3.077    0.000    0.000    0.615 
#    0.000    6.154    0.000    3.462    0.000    3.231 
#    0.000    1.231    0.000    9.231    0.000    0.000 
#
# Total GULP energy -289563.342094 kJ/mol
# GULP energy per Si atom -5568.525810 kJ/mol
# Density = 1.745819 g / cm^3
# Si number density = 17.498015 Si / 1000 Ang^3
#
#
#
# Elastic Constant Matrix: (Units=GPa)
#
#
# Indices 1 2 3 4 5 6 
#
# 1 142.8825 87.7021 14.4155 0.0000 0.0000 0.0000
# 2 87.7021 142.8831 14.4157 0.0000 0.0000 0.0000
# 3 14.4155 14.4157 64.2614 0.0000 0.0000 0.0000
# 4 0.0000 0.0000 0.0000 8.0954 0.0000 0.0000
# 5 0.0000 0.0000 0.0000 0.0000 8.0964 0.0000
# 6 0.0000 0.0000 0.0000 0.0000 0.0000 20.0662
#
#
#
# Elastic Compliance Matrix: (Units=1/GPa)
#
#
# Indices 1 2 3 4 5 6 
#
# 1 0.011292 -0.006830 -0.001001 0.000000 0.000000 0.000000
# 2 -0.006830 0.011292 -0.001001 0.000000 0.000000 0.000000
# 3 -0.001001 -0.001001 0.016011 0.000000 0.000000 0.000000
# 4 0.000000 0.000000 0.000000 0.123526 0.000000 0.000000
# 5 0.000000 0.000000 0.000000 0.000000 0.123512 0.000000
# 6 0.000000 0.000000 0.000000 0.000000 0.000000 0.049835
#
#
# Mechanical properties :
#
#
# Convention : Reuss Voigt Hill
#
# Bulk Modulus (GPa) = 47.77676 64.78816 56.28246
# Shear Modulus (GPa) = 13.88466 22.81784 18.35125
#
# Velocity S-wave (km/s) = 2.81997 3.61505 3.24197
# Velocity P-wave (km/s) = 6.16168 7.38452 6.80064
#
# Compressibility (1/GPa) = 0.02093068
#
# Stress axis : x y z
#
# Youngs Moduli (GPa) = 88.55718 88.55747 62.45893
#
# Poissons Ratio (x) = 0.60486 0.06252
# Poissons Ratio (y) = 0.60486 0.06252
# Poissons Ratio (z) = 0.08864 0.08864
#
# Static dielectric constant tensor:
#      x y z
#    x 1.597400 0.000000 0.000000 
#    y 0.000000 1.597400 0.000000 
#    z 0.000000 0.000000 1.633790 
# 
# From -- ./inp_files/535.got.cif
#   From: 2010.05.17/outbox.cif.g08.bks.cpg/sg123_1_cif.got.tgz:535.got - 2010.05.20 11:43:04.
