data_PCOD9561589
_publ_section_title
;
Structure prediction by ZEFSAII (Michael W. Deem and Ramdas Pophale) SiO2 
 PCOD9561589
Probable space group: I -4 2 D
;
_chemical_formula_sum "Si O2"
_cell_formula_units_Z 30
_cell_length_a 18.000000
_cell_length_b 18.000000
_cell_length_c 9.000000
_cell_angle_alpha 90.000000
_cell_angle_beta 90.000000
_cell_angle_gamma 90.000000
_cell_volume 2916.000000
_symmetry_space_group_name_H-M "I -4 2 D"
_symmetry_group_IT_number 122
_symmetry_cell_setting 'tetragonal'
loop_
_space_group_symop_operation_xyz
x,y,z
y,-x,-z
-x,-y,z
-y,x,-z
x,1/2-y,1/4-z
-x,1/2+y,1/4-z
-y,1/2-x,1/4+z
y,1/2+x,1/4+z
1/2+x,1/2+y,1/2+z
1/2+y,1/2-x,1/2-z
1/2-x,1/2-y,1/2+z
1/2-y,1/2+x,1/2-z
1/2+x,-y,3/4-z
1/2-x,y,3/4-z
1/2-y,-x,3/4+z
1/2+y,x,3/4+z
loop_
_atom_site_type_symbol
_atom_site_label
_atom_site_fract_x
_atom_site_fract_y
_atom_site_fract_z
Si Si1 0.250000 0.295181 0.875000
Si Si2 0.282901 0.016095 0.711518
Si Si3 0.340671 0.855736 0.664714
Si Si4 0.153324 0.407973 0.667487
Si Si5 0.000000 0.000000 0.500000
O O1 0.191669 0.234444 0.945540
O O2 0.193091 0.348923 0.781315
O O3 0.328526 0.093075 0.726873
O O4 0.214928 0.026850 0.598260
O O5 0.329191 0.943394 0.676854
O O6 0.250000 0.003578 0.875000
O O7 0.367490 0.843786 0.494137
O O8 0.071496 0.446942 0.691557
#
# Coordination Sequence:
#
# PCOD9561589 Si02
#       5
#     8  16  16  16   4
#     4  12  24  44  76  98 142 188 244 302 356 442
#     4  10  24  42  69 105 139 190 239 296 367 433
#     4  11  24  44  71 103 145 184 252 293 365 444
#     4  11  26  45  68 109 134 197 236 305 362 440
#     4  12  28  48  68 102 160 176 240 300 374 436
#
# _framework density 10.288066000000001
#
# number of rings (size 3 to 8) (size 9 to 14) (size 15 to 20)
#    0.000    1.067    4.000    2.400    7.467    4.800 
#    0.000    0.000    0.000    0.000    0.000    0.000 
#    0.000    0.000    0.000    0.000    0.000    0.000 
#
# Total GULP energy -167015.277286 kJ/mol
# GULP energy per Si atom -5567.175910 kJ/mol
# Density = 1.026465 g / cm^3
# Si number density = 10.288066 Si / 1000 Ang^3
#
#
#
# Elastic Constant Matrix: (Units=GPa)
#
#
# Indices 1 2 3 4 5 6 
#
# 1 143.2999 61.7310 30.1723 0.0000 0.0000 0.0000
# 2 61.7310 143.2999 30.1723 0.0000 0.0000 0.0000
# 3 30.1723 30.1723 36.1323 0.0000 0.0000 0.0000
# 4 0.0000 0.0000 0.0000 24.8241 0.0000 0.0000
# 5 0.0000 0.0000 0.0000 0.0000 24.8241 0.0000
# 6 0.0000 0.0000 0.0000 0.0000 0.0000 59.7857
#
#
#
# Elastic Compliance Matrix: (Units=1/GPa)
#
#
# Indices 1 2 3 4 5 6 
#
# 1 0.009363 -0.002896 -0.005400 0.000000 0.000000 0.000000
# 2 -0.002896 0.009363 -0.005400 0.000000 0.000000 0.000000
# 3 -0.005400 -0.005400 0.036694 0.000000 0.000000 0.000000
# 4 0.000000 0.000000 0.000000 0.040283 0.000000 0.000000
# 5 0.000000 0.000000 0.000000 0.000000 0.040283 0.000000
# 6 0.000000 0.000000 0.000000 0.000000 0.000000 0.016726
#
#
# Mechanical properties :
#
#
# Convention : Reuss Voigt Hill
#
# Bulk Modulus (GPa) = 35.67869 62.98703 49.33286
# Shear Modulus (GPa) = 26.39230 35.26392 30.82811
#
# Velocity S-wave (km/s) = 3.58532 4.14433 3.87492
# Velocity P-wave (km/s) = 5.87510 7.31975 6.63685
#
# Compressibility (1/GPa) = 0.02802793
#
# Stress axis : x y z
#
# Youngs Moduli (GPa) = 106.80228 106.80228 27.25206
#
# Poissons Ratio (x) = 0.30935 0.14716
# Poissons Ratio (y) = 0.30935 0.14716
# Poissons Ratio (z) = 0.57673 0.57673
#
# Static dielectric constant tensor:
#      x y z
#    x 1.754880 0.000000 0.000000 
#    y 0.000000 1.754880 0.000000 
#    z 0.000000 0.000000 1.777940 
# 
# From -- ./inp_files/2326.got.cif
#   From: 2010.05.17/outbox.ucp.g08.bks.cvg/sg122_2_cif.got.tgz:2326.got - 2010.06.11 11:35:26.
