data_PCOD9561046
_publ_section_title
;
Structure prediction by ZEFSAII (Michael W. Deem and Ramdas Pophale) SiO2 
 PCOD9561046
Probable space group: I -4 2 D
;
_chemical_formula_sum "Si O2"
_cell_formula_units_Z 64
_cell_length_a 10.094130
_cell_length_b 10.094130
_cell_length_c 25.340774
_cell_angle_alpha 90.000000
_cell_angle_beta 90.000000
_cell_angle_gamma 90.000000
_cell_volume 2582.008472
_symmetry_space_group_name_H-M "I -4 2 D"
_symmetry_group_IT_number 122
_symmetry_cell_setting 'tetragonal'
loop_
_space_group_symop_operation_xyz
x,y,z
y,-x,-z
-x,-y,z
-y,x,-z
x,1/2-y,1/4-z
-x,1/2+y,1/4-z
-y,1/2-x,1/4+z
y,1/2+x,1/4+z
1/2+x,1/2+y,1/2+z
1/2+y,1/2-x,1/2-z
1/2-x,1/2-y,1/2+z
1/2-y,1/2+x,1/2-z
1/2+x,-y,3/4-z
1/2-x,y,3/4-z
1/2-y,-x,3/4+z
1/2+y,x,3/4+z
loop_
_atom_site_type_symbol
_atom_site_label
_atom_site_fract_x
_atom_site_fract_y
_atom_site_fract_z
Si Si1 0.948775 0.757145 0.843313
Si Si2 0.485033 0.750000 0.625000
Si Si3 0.635660 0.415179 0.768073
Si Si4 0.027035 0.750000 0.625000
Si Si5 0.637345 0.909143 0.691392
O O1 0.964364 0.774103 0.780915
O O2 0.869883 0.624859 0.858163
O O3 0.057634 0.781132 0.887871
O O4 0.863779 0.886347 0.858556
O O5 0.573966 0.771130 0.676078
O O6 0.500000 0.500000 0.767237
O O7 0.709620 0.447222 0.822923
O O8 0.605010 0.255568 0.766561
O O9 0.500000 0.000000 0.698088
#
# Coordination Sequence:
#
# PCOD9561046 Si02
#       5
#    16   8  16   8  16
#     4  10  23  44  68 100 144 194 241 320 376 452
#     4   9  19  40  66  92 138 178 236 312 360 442
#     4  12  24  42  74 104 145 205 253 311 401 459
#     4  11  25  46  66 104 154 180 260 320 374 472
#     4  10  21  43  67 103 146 183 250 312 368 457
#
# _framework density 24.786905999999998
#
# number of rings (size 3 to 8) (size 9 to 14) (size 15 to 20)
#    0.000    1.500    2.500    3.000    0.000    6.000 
#    0.000    0.000    0.000    0.000    0.000    0.000 
#    0.000    0.000    0.000    0.000    0.000    0.000 
#
# Total GULP energy -178413.510364 kJ/mol
# GULP energy per Si atom -5575.422199 kJ/mol
# Density = 2.473049 g / cm^3
# Si number density = 24.786906 Si / 1000 Ang^3
#
#
#
# Elastic Constant Matrix: (Units=GPa)
#
#
# Indices 1 2 3 4 5 6 
#
# 1 79.0713 12.3895 24.1054 0.0000 0.0000 0.0000
# 2 12.3895 79.0713 24.1054 0.0000 0.0000 0.0000
# 3 24.1054 24.1054 196.9909 0.0000 0.0000 0.0000
# 4 0.0000 0.0000 0.0000 20.5463 0.0000 0.0000
# 5 0.0000 0.0000 0.0000 0.0000 20.5463 0.0000
# 6 0.0000 0.0000 0.0000 0.0000 0.0000 92.3637
#
#
#
# Elastic Compliance Matrix: (Units=1/GPa)
#
#
# Indices 1 2 3 4 5 6 
#
# 1 0.013342 -0.001655 -0.001430 0.000000 0.000000 0.000000
# 2 -0.001655 0.013342 -0.001430 0.000000 0.000000 0.000000
# 3 -0.001430 -0.001430 0.005426 0.000000 0.000000 0.000000
# 4 0.000000 0.000000 0.000000 0.048671 0.000000 0.000000
# 5 0.000000 0.000000 0.000000 0.000000 0.048671 0.000000
# 6 0.000000 0.000000 0.000000 0.000000 0.000000 0.010827
#
#
# Mechanical properties :
#
#
# Convention : Reuss Voigt Hill
#
# Bulk Modulus (GPa) = 43.32619 52.92600 48.12609
# Shear Modulus (GPa) = 31.84680 46.32682 39.08681
#
# Velocity S-wave (km/s) = 3.58833 4.32789 3.97535
# Velocity P-wave (km/s) = 5.88945 6.80977 6.36626
#
# Compressibility (1/GPa) = 0.02308073
#
# Stress axis : x y z
#
# Youngs Moduli (GPa) = 74.95093 74.95093 184.28447
#
# Poissons Ratio (x) = 0.12401 0.26356
# Poissons Ratio (y) = 0.12401 0.26356
# Poissons Ratio (z) = 0.10719 0.10719
#
# Static dielectric constant tensor:
#      x y z
#    x 2.037330 0.000000 0.000000 
#    y 0.000000 2.037330 0.000000 
#    z 0.000000 0.000000 2.016580 
# 
# From -- ./inp_files/7881.got.cif
#   From: 2010.05.17/outbox.cif.g08.bks.cpg/sg122_4_cif.got.tgz:7881.got - 2010.05.20 11:37:33.
