data_PCOD9561958
_publ_section_title
;
Structure prediction by ZEFSAII (Michael W. Deem and Ramdas Pophale) SiO2 
 PCOD9561958
Probable space group: P 4/M M M
;
_chemical_formula_sum "Si O2"
_cell_formula_units_Z 92
_cell_length_a 25.247112
_cell_length_b 25.247112
_cell_length_c 7.417538
_cell_angle_alpha 90.000000
_cell_angle_beta 90.000000
_cell_angle_gamma 90.000000
_cell_volume 4728.062330
_symmetry_space_group_name_H-M "P 4/M M M"
_symmetry_group_IT_number 123
_symmetry_cell_setting 'tetragonal'
loop_
_space_group_symop_operation_xyz
x,y,z
-y,x,z
-x,-y,z
y,-x,z
x,-y,-z
-x,y,-z
y,x,-z
-y,-x,-z
-x,-y,-z
y,-x,-z
x,y,-z
-y,x,-z
-x,y,z
x,-y,z
-y,-x,z
y,x,z
loop_
_atom_site_type_symbol
_atom_site_label
_atom_site_fract_x
_atom_site_fract_y
_atom_site_fract_z
Si Si1 0.173793 0.443967 0.707348
Si Si2 0.942470 0.586152 0.782755
Si Si3 0.650014 0.754619 0.795564
Si Si4 0.254775 0.827209 0.220207
Si Si5 0.365178 0.365178 0.220289
Si Si6 0.942017 0.289187 0.218819
Si Si7 0.434653 0.565348 0.500000
O O1 0.190461 0.441684 0.500000
O O2 0.190206 0.500000 0.786283
O O3 0.110554 0.439940 0.713468
O O4 0.201872 0.395505 0.798798
O O5 0.939472 0.648413 0.736862
O O6 0.000000 0.566076 0.722419
O O7 0.941143 0.581717 0.000000
O O8 0.699893 0.786127 0.713543
O O9 0.628678 0.697717 0.728426
O O10 0.665440 0.742954 0.000000
O O11 0.198836 0.801164 0.266176
O O12 0.263436 0.887305 0.282358
O O13 0.259155 0.828381 0.000000
O O14 0.404535 0.404535 0.330758
O O15 0.371888 0.371888 0.000000
O O16 0.000000 0.269246 0.279773
O O17 0.942216 0.285976 0.000000
O O18 0.426657 0.500000 0.500000
#
# Coordination Sequence:
#
# PCOD9561958 Si02
#       7
#    16  16  16  16   8  16   4
#     4  11  24  36  46  67 102 140 174 214 265 318
#     4   9  17  31  51  69  87 124 179 229 269 309
#     4  10  19  35  57  82 108 136 174 218 267 328
#     4   9  14  23  44  72  99 127 163 212 267 317
#     4  10  23  43  71 100 124 152 184 222 279 346
#     4   8  13  22  39  64  92 122 159 205 253 301
#     4  11  28  52  76 100 124 152 186 230 282 340
#
# _framework density 19.458288
#
# number of rings (size 3 to 8) (size 9 to 14) (size 15 to 20)
#    0.000    2.478    2.609    1.565    1.217    3.130 
#    0.000    3.913    0.000    0.000    0.000    0.000 
#    0.000    0.348    0.000    4.870    0.000    0.000 
#
# Total GULP energy -512616.780971 kJ/mol
# GULP energy per Si atom -5571.921532 kJ/mol
# Density = 1.941400 g / cm^3
# Si number density = 19.458288 Si / 1000 Ang^3
#
#
#
# Elastic Constant Matrix: (Units=GPa)
#
#
# Indices 1 2 3 4 5 6 
#
# 1 132.8138 68.1386 15.2991 0.0000 0.0000 0.0000
# 2 68.1386 132.8128 15.2990 0.0000 0.0000 0.0000
# 3 15.2991 15.2990 73.4484 0.0000 0.0000 0.0000
# 4 0.0000 0.0000 0.0000 4.7732 0.0000 0.0000
# 5 0.0000 0.0000 0.0000 0.0000 4.7730 0.0000
# 6 0.0000 0.0000 0.0000 0.0000 0.0000 13.3440
#
#
#
# Elastic Compliance Matrix: (Units=1/GPa)
#
#
# Indices 1 2 3 4 5 6 
#
# 1 0.010301 -0.005161 -0.001071 0.000000 0.000000 0.000000
# 2 -0.005161 0.010301 -0.001070 0.000000 0.000000 0.000000
# 3 -0.001071 -0.001070 0.014061 0.000000 0.000000 0.000000
# 4 0.000000 0.000000 0.000000 0.209501 0.000000 0.000000
# 5 0.000000 0.000000 0.000000 0.000000 0.209510 0.000000
# 6 0.000000 0.000000 0.000000 0.000000 0.000000 0.074940
#
#
# Mechanical properties :
#
#
# Convention : Reuss Voigt Hill
#
# Bulk Modulus (GPa) = 49.85644 59.61648 54.73646
# Shear Modulus (GPa) = 9.09249 20.60061 14.84655
#
# Velocity S-wave (km/s) = 2.16401 3.25731 2.76523
# Velocity P-wave (km/s) = 5.64994 6.69711 6.19569
#
# Compressibility (1/GPa) = 0.02005759
#
# Stress axis : x y z
#
# Youngs Moduli (GPa) = 97.08153 97.08079 71.11891
#
# Poissons Ratio (x) = 0.50107 0.07613
# Poissons Ratio (y) = 0.50107 0.07613
# Poissons Ratio (z) = 0.10393 0.10392
#
# Static dielectric constant tensor:
#      x y z
#    x 1.688310 0.000000 0.000000 
#    y 0.000000 1.688310 0.000000 
#    z 0.000000 0.000000 1.777170 
# 
# From -- ./inp_files/1696.got.cif
#   From: 2010.05.17/outbox.cif.g08.bks.cpg/sg123_1_cif.got.tgz:1696.got - 2010.05.20 11:43:04.
