data_PCOD9561473
_publ_section_title
;
Structure prediction by ZEFSAII (Michael W. Deem and Ramdas Pophale) SiO2 
 PCOD9561473
Probable space group: I -4 2 D
;
_chemical_formula_sum "Si O2"
_cell_formula_units_Z 40
_cell_length_a 7.895133
_cell_length_b 7.895133
_cell_length_c 26.574071
_cell_angle_alpha 90.000000
_cell_angle_beta 90.000000
_cell_angle_gamma 90.000000
_cell_volume 1656.444892
_symmetry_space_group_name_H-M "I -4 2 D"
_symmetry_group_IT_number 122
_symmetry_cell_setting 'tetragonal'
loop_
_space_group_symop_operation_xyz
x,y,z
y,-x,-z
-x,-y,z
-y,x,-z
x,1/2-y,1/4-z
-x,1/2+y,1/4-z
-y,1/2-x,1/4+z
y,1/2+x,1/4+z
1/2+x,1/2+y,1/2+z
1/2+y,1/2-x,1/2-z
1/2-x,1/2-y,1/2+z
1/2-y,1/2+x,1/2-z
1/2+x,-y,3/4-z
1/2-x,y,3/4-z
1/2-y,-x,3/4+z
1/2+y,x,3/4+z
loop_
_atom_site_type_symbol
_atom_site_label
_atom_site_fract_x
_atom_site_fract_y
_atom_site_fract_z
Si Si1 0.387096 0.206501 0.723418
Si Si2 0.681380 0.579474 0.089607
Si Si3 0.112300 0.750000 0.125000
O O1 0.531299 0.212083 0.766348
O O2 0.261609 0.359873 0.713398
O O3 0.496308 0.209495 0.672710
O O4 0.500000 0.500000 0.082537
O O5 0.671525 0.750000 0.125000
O O6 0.212311 0.577896 0.112152
#
# Coordination Sequence:
#
# PCOD9561473 Si02
#       3
#    16  16   8
#     4  11  25  50  87 123 165 229 305 355 439 548
#     4  12  25  50  86 126 175 228 294 373 452 537
#     4  12  26  54  94 126 168 240 292 376 456 532
#
# _framework density 24.148101
#
# number of rings (size 3 to 8) (size 9 to 14) (size 15 to 20)
#    0.000    0.400    4.000    6.000    0.000    0.000 
#   14.400    0.000    0.000    0.000    0.000    0.000 
#    0.000    0.000    0.000    0.000    0.000    0.000 
#
# Total GULP energy -111851.071152 kJ/mol
# GULP energy per Si atom -5592.553558 kJ/mol
# Density = 2.409314 g / cm^3
# Si number density = 24.148101 Si / 1000 Ang^3
#
#
#
# Elastic Constant Matrix: (Units=GPa)
#
#
# Indices 1 2 3 4 5 6 
#
# 1 198.2543 106.2909 66.5945 0.0000 0.0000 0.0000
# 2 106.2909 198.2542 66.5945 0.0000 0.0000 0.0000
# 3 66.5945 66.5945 115.5008 0.0000 0.0000 0.0000
# 4 0.0000 0.0000 0.0000 36.3918 0.0000 0.0000
# 5 0.0000 0.0000 0.0000 0.0000 36.3918 0.0000
# 6 0.0000 0.0000 0.0000 0.0000 0.0000 49.2111
#
#
#
# Elastic Compliance Matrix: (Units=1/GPa)
#
#
# Indices 1 2 3 4 5 6 
#
# 1 0.007632 -0.003242 -0.002532 0.000000 0.000000 0.000000
# 2 -0.003242 0.007632 -0.002532 0.000000 0.000000 0.000000
# 3 -0.002532 -0.002532 0.011577 0.000000 0.000000 0.000000
# 4 0.000000 0.000000 0.000000 0.027479 0.000000 0.000000
# 5 0.000000 0.000000 0.000000 0.000000 0.027479 0.000000
# 6 0.000000 0.000000 0.000000 0.000000 0.000000 0.020321
#
#
# Mechanical properties :
#
#
# Convention : Reuss Voigt Hill
#
# Bulk Modulus (GPa) = 97.72883 110.10766 103.91825
# Shear Modulus (GPa) = 40.93658 42.56757 41.75207
#
# Velocity S-wave (km/s) = 4.12178 4.20309 4.16264
# Velocity P-wave (km/s) = 7.95051 8.32169 8.13821
#
# Compressibility (1/GPa) = 0.01023239
#
# Stress axis : x y z
#
# Youngs Moduli (GPa) = 131.02181 131.02179 86.37651
#
# Poissons Ratio (x) = 0.42472 0.21867
# Poissons Ratio (y) = 0.42472 0.21867
# Poissons Ratio (z) = 0.33169 0.33169
#
# Static dielectric constant tensor:
#      x y z
#    x 1.981420 0.000000 0.000000 
#    y 0.000000 1.981420 0.000000 
#    z 0.000000 0.000000 1.991180 
# 
# From -- ./inp_files/7639.got.cif
#   From: 2010.05.17/outbox.cif.g08.bks.cpg/sg122_4_cif.got.tgz:7639.got - 2010.05.20 11:37:33.
