data_PCOD9561717
_publ_section_title
;
Structure prediction by ZEFSAII (Michael W. Deem and Ramdas Pophale) SiO2 
 PCOD9561717
Probable space group: P 4/M M M
;
_chemical_formula_sum "Si O2"
_cell_formula_units_Z 104
_cell_length_a 14.333443
_cell_length_b 14.333443
_cell_length_c 33.773108
_cell_angle_alpha 90.000000
_cell_angle_beta 90.000000
_cell_angle_gamma 90.000000
_cell_volume 6938.603586
_symmetry_space_group_name_H-M "P 4/M M M"
_symmetry_group_IT_number 123
_symmetry_cell_setting 'tetragonal'
loop_
_space_group_symop_operation_xyz
x,y,z
-y,x,z
-x,-y,z
y,-x,z
x,-y,-z
-x,y,-z
y,x,-z
-y,-x,-z
-x,-y,-z
y,-x,-z
x,y,-z
-y,x,-z
-x,y,z
x,-y,z
-y,-x,z
y,x,z
loop_
_atom_site_type_symbol
_atom_site_label
_atom_site_fract_x
_atom_site_fract_y
_atom_site_fract_z
Si Si1 0.891319 0.609145 0.347420
Si Si2 0.893117 0.612975 0.500000
Si Si3 0.611316 0.233570 0.424743
Si Si4 0.386621 0.892962 0.955291
Si Si5 0.735349 0.889887 0.729307
Si Si6 0.609208 0.890729 0.194243
Si Si7 0.388657 0.236189 0.117706
O O1 0.882119 0.500000 0.336212
O O2 0.823118 0.627061 0.384085
O O3 0.871686 0.673638 0.309802
O O4 0.000000 0.622999 0.359356
O O5 0.898444 0.500000 0.500000
O O6 0.834443 0.638412 0.461052
O O7 0.000000 0.647681 0.500000
O O8 0.500000 0.253282 0.427886
O O9 0.674061 0.325940 0.425851
O O10 0.500000 0.893607 0.955044
O O11 0.358237 0.822806 0.920887
O O12 0.357300 0.000000 0.947513
O O13 0.357433 0.867194 0.000000
O O14 0.825876 0.825876 0.729076
O O15 0.673427 0.869664 0.768181
O O16 0.757670 0.000000 0.729770
O O17 0.500000 0.878837 0.204918
O O18 0.629199 0.826225 0.156626
O O19 0.621712 0.000000 0.183597
O O20 0.500000 0.252079 0.115291
O O21 0.330711 0.330711 0.119858
#
# Coordination Sequence:
#
# PCOD9561717 Si02
#       7
#    16   8  16  16  16  16  16
#     4   9  17  30  48  68  88 112 146 188 227 255
#     4   9  17  30  47  65  85 111 145 185 223 252
#     4  10  19  30  45  66  93 122 149 178 214 260
#     4   8  14  26  44  63  81 103 135 177 220 252
#     4  10  19  30  45  65  90 117 143 174 214 264
#     4   9  17  30  48  67  84 105 139 184 229 263
#     4  10  19  29  42  61  87 118 147 174 206 249
#
# _framework density 14.988607
#
# number of rings (size 3 to 8) (size 9 to 14) (size 15 to 20)
#    0.000    2.692    0.000    3.000    0.000    6.308 
#    0.000    0.000    0.000    1.385    0.000    2.154 
#    0.000   25.538    0.000    6.769    0.000    0.615 
#
# Total GULP energy -579469.192521 kJ/mol
# GULP energy per Si atom -5571.819159 kJ/mol
# Density = 1.495449 g / cm^3
# Si number density = 14.988607 Si / 1000 Ang^3
#
#
#
# Elastic Constant Matrix: (Units=GPa)
#
#
# Indices 1 2 3 4 5 6 
#
# 1 74.7440 59.7501 67.5485 0.0000 0.0000 0.0000
# 2 59.7501 74.7440 67.5485 0.0000 0.0000 0.0000
# 3 67.5485 67.5485 119.0838 0.0000 0.0000 0.0000
# 4 0.0000 0.0000 0.0000 10.5396 0.0000 0.0000
# 5 0.0000 0.0000 0.0000 0.0000 10.5396 0.0000
# 6 0.0000 0.0000 0.0000 0.0000 0.0000 25.6672
#
#
#
# Elastic Compliance Matrix: (Units=1/GPa)
#
#
# Indices 1 2 3 4 5 6 
#
# 1 0.041988 -0.024706 -0.009803 0.000000 0.000000 0.000000
# 2 -0.024706 0.041988 -0.009803 0.000000 0.000000 0.000000
# 3 -0.009803 -0.009803 0.019519 0.000000 0.000000 0.000000
# 4 0.000000 0.000000 0.000000 0.094880 0.000000 0.000000
# 5 0.000000 0.000000 0.000000 0.000000 0.094880 0.000000
# 6 0.000000 0.000000 0.000000 0.000000 0.000000 0.038960
#
#
# Mechanical properties :
#
#
# Convention : Reuss Voigt Hill
#
# Bulk Modulus (GPa) = 67.24527 73.14065 70.19296
# Shear Modulus (GPa) = 11.74269 14.26427 13.00348
#
# Velocity S-wave (km/s) = 2.80204 3.08827 2.94863
# Velocity P-wave (km/s) = 7.44515 7.84984 7.65017
#
# Compressibility (1/GPa) = 0.01487093
#
# Stress axis : x y z
#
# Youngs Moduli (GPa) = 23.81620 23.81620 51.23247
#
# Poissons Ratio (x) = 0.58840 0.50224
# Poissons Ratio (y) = 0.58840 0.50224
# Poissons Ratio (z) = 0.23347 0.23347
#
# Static dielectric constant tensor:
#      x y z
#    x 1.477840 0.000000 0.000000 
#    y 0.000000 1.477840 0.000000 
#    z 0.000000 0.000000 1.495960 
# 
# From -- ./inp_files/8775.got.cif
#   From: 2010.05.17/outbox.cif.g08.bks.cpg/sg123_5_cif.got.tgz:8775.got - 2010.05.20 11:43:04.
