data_PCOD9561256
_publ_section_title
;
Structure prediction by ZEFSAII (Michael W. Deem and Ramdas Pophale) SiO2 
 PCOD9561256
Probable space group: I -4 2 D
;
_chemical_formula_sum "Si O2"
_cell_formula_units_Z 96
_cell_length_a 20.949150
_cell_length_b 20.949150
_cell_length_c 10.786261
_cell_angle_alpha 90.000000
_cell_angle_beta 90.000000
_cell_angle_gamma 90.000000
_cell_volume 4733.732774
_symmetry_space_group_name_H-M "I -4 2 D"
_symmetry_group_IT_number 122
_symmetry_cell_setting 'tetragonal'
loop_
_space_group_symop_operation_xyz
x,y,z
y,-x,-z
-x,-y,z
-y,x,-z
x,1/2-y,1/4-z
-x,1/2+y,1/4-z
-y,1/2-x,1/4+z
y,1/2+x,1/4+z
1/2+x,1/2+y,1/2+z
1/2+y,1/2-x,1/2-z
1/2-x,1/2-y,1/2+z
1/2-y,1/2+x,1/2-z
1/2+x,-y,3/4-z
1/2-x,y,3/4-z
1/2-y,-x,3/4+z
1/2+y,x,3/4+z
loop_
_atom_site_type_symbol
_atom_site_label
_atom_site_fract_x
_atom_site_fract_y
_atom_site_fract_z
Si Si1 0.660843 0.668221 0.986857
Si Si2 0.221373 0.369511 0.149262
Si Si3 0.774821 0.018524 0.099729
Si Si4 0.250000 0.937734 0.375000
Si Si5 0.651360 0.405683 0.244941
Si Si6 0.533120 0.597137 0.532971
Si Si7 0.250000 0.275366 0.375000
O O1 0.623473 0.627290 0.884749
O O2 0.691315 0.729509 0.914870
O O3 0.720782 0.636671 0.051925
O O4 0.609819 0.692861 0.086095
O O5 0.221927 0.443831 0.186386
O O6 0.233852 0.320723 0.260331
O O7 0.156041 0.347203 0.084104
O O8 0.767500 0.024591 0.249134
O O9 0.716582 0.057239 0.037689
O O10 0.839913 0.047791 0.046365
O O11 0.608868 0.454500 0.322218
O O12 0.576859 0.539197 0.489779
#
# Coordination Sequence:
#
# PCOD9561256 Si02
#       7
#    16  16  16   8  16  16   8
#     4  11  23  41  68  98 135 173 211 284 350 405
#     4  12  25  42  68 101 139 175 224 281 350 411
#     4  11  27  41  69  96 134 180 227 278 336 406
#     4  10  24  43  58  97 130 176 220 264 332 404
#     4  11  25  42  66  99 132 172 224 278 340 407
#     4  11  25  44  67  94 130 179 224 279 335 397
#     4  12  24  35  64 105 134 166 208 270 352 408
#
# _framework density 20.279979000000001
#
# number of rings (size 3 to 8) (size 9 to 14) (size 15 to 20)
#    0.000    0.833    5.000    0.500   11.667    1.333 
#    0.000    0.000    0.000    0.000    0.000    0.000 
#    0.000    0.000    0.000    0.000    0.000    0.000 
#
# Total GULP energy -268211.445733 kJ/mol
# GULP energy per Si atom -5587.738453 kJ/mol
# Density = 2.023382 g / cm^3
# Si number density = 20.279979 Si / 1000 Ang^3
#
#
#
# Elastic Constant Matrix: (Units=GPa)
#
#
# Indices 1 2 3 4 5 6 
#
# 1 77.6191 10.1204 21.7226 0.0000 0.0000 0.0000
# 2 10.1204 77.6191 21.7226 0.0000 0.0000 0.0000
# 3 21.7226 21.7226 71.9068 0.0000 0.0000 0.0000
# 4 0.0000 0.0000 0.0000 22.0686 0.0000 0.0000
# 5 0.0000 0.0000 0.0000 0.0000 22.0686 0.0000
# 6 0.0000 0.0000 0.0000 0.0000 0.0000 19.2165
#
#
#
# Elastic Compliance Matrix: (Units=1/GPa)
#
#
# Indices 1 2 3 4 5 6 
#
# 1 0.014109 -0.000706 -0.004049 0.000000 0.000000 0.000000
# 2 -0.000706 0.014109 -0.004049 0.000000 0.000000 0.000000
# 3 -0.004049 -0.004049 0.016353 0.000000 0.000000 0.000000
# 4 0.000000 0.000000 0.000000 0.045313 0.000000 0.000000
# 5 0.000000 0.000000 0.000000 0.000000 0.045313 0.000000
# 6 0.000000 0.000000 0.000000 0.000000 0.000000 0.052039
#
#
# Mechanical properties :
#
#
# Convention : Reuss Voigt Hill
#
# Bulk Modulus (GPa) = 37.08850 37.14179 37.11514
# Shear Modulus (GPa) = 23.38299 24.24270 23.81285
#
# Velocity S-wave (km/s) = 3.39928 3.46121 3.43038
# Velocity P-wave (km/s) = 5.80816 5.85897 5.83362
#
# Compressibility (1/GPa) = 0.02696254
#
# Stress axis : x y z
#
# Youngs Moduli (GPa) = 70.87864 70.87864 61.15058
#
# Poissons Ratio (x) = 0.05007 0.24758
# Poissons Ratio (y) = 0.05007 0.24758
# Poissons Ratio (z) = 0.28697 0.28697
#
# Static dielectric constant tensor:
#      x y z
#    x 1.716420 0.000000 0.000000 
#    y 0.000000 1.716420 0.000000 
#    z 0.000000 0.000000 1.729890 
# 
# From -- ./inp_files/4506.got.cif
#   From: 2010.05.17/outbox.cif.g08.bks.cpg/sg122_3_cif.got.tgz:4506.got - 2010.05.20 11:37:33.
