data_PCOD9561306
_publ_section_title
;
Structure prediction by ZEFSAII (Michael W. Deem and Ramdas Pophale) SiO2 
 PCOD9561306
Probable space group: I -4 2 D
;
_chemical_formula_sum "Si O2"
_cell_formula_units_Z 64
_cell_length_a 11.454973
_cell_length_b 11.454973
_cell_length_c 26.032160
_cell_angle_alpha 90.000000
_cell_angle_beta 90.000000
_cell_angle_gamma 90.000000
_cell_volume 3415.846487
_symmetry_space_group_name_H-M "I -4 2 D"
_symmetry_group_IT_number 122
_symmetry_cell_setting 'tetragonal'
loop_
_space_group_symop_operation_xyz
x,y,z
y,-x,-z
-x,-y,z
-y,x,-z
x,1/2-y,1/4-z
-x,1/2+y,1/4-z
-y,1/2-x,1/4+z
y,1/2+x,1/4+z
1/2+x,1/2+y,1/2+z
1/2+y,1/2-x,1/2-z
1/2-x,1/2-y,1/2+z
1/2-y,1/2+x,1/2-z
1/2+x,-y,3/4-z
1/2-x,y,3/4-z
1/2-y,-x,3/4+z
1/2+y,x,3/4+z
loop_
_atom_site_type_symbol
_atom_site_label
_atom_site_fract_x
_atom_site_fract_y
_atom_site_fract_z
Si Si1 0.217239 0.891335 0.275014
Si Si2 0.053415 0.750000 0.625000
Si Si3 0.311745 0.333559 0.670863
Si Si4 0.500000 0.000000 0.525991
Si Si5 0.364633 0.968497 0.175862
O O1 0.253857 0.759044 0.288135
O O2 0.303470 0.933564 0.229384
O O3 0.086718 0.917734 0.256409
O O4 0.233209 0.972230 0.325166
O O5 0.132851 0.638687 0.636775
O O6 0.349360 0.250000 0.625000
O O7 0.415675 0.413134 0.692347
O O8 0.209833 0.424157 0.653999
O O9 0.500000 0.000000 0.183565
#
# Coordination Sequence:
#
# PCOD9561306 Si02
#       5
#    16   8  16   8  16
#     4  11  23  40  64  97 132 168 214 278 333 403
#     4  12  24  34  68 102 132 168 210 266 364 398
#     4  11  23  43  65  90 127 173 219 268 317 394
#     4  10  26  44  62  92 138 172 216 268 324 390
#     4  11  22  38  62 102 134 163 209 280 348 407
#
# _framework density 18.736204000000001
#
# number of rings (size 3 to 8) (size 9 to 14) (size 15 to 20)
#    0.000    1.000    3.750    3.000    8.750    0.000 
#    9.000    0.000    0.000    0.000    0.000    0.000 
#    0.000    0.000    0.000    0.000    0.000    0.000 
#
# Total GULP energy -178726.234551 kJ/mol
# GULP energy per Si atom -5585.194830 kJ/mol
# Density = 1.869356 g / cm^3
# Si number density = 18.736204 Si / 1000 Ang^3
#
#
#
# Elastic Constant Matrix: (Units=GPa)
#
#
# Indices 1 2 3 4 5 6 
#
# 1 135.2415 59.6294 38.9933 0.0000 0.0000 0.0000
# 2 59.6294 135.2415 38.9933 0.0000 0.0000 0.0000
# 3 38.9933 38.9933 61.0831 0.0000 0.0000 0.0000
# 4 0.0000 0.0000 0.0000 25.2504 0.0000 0.0000
# 5 0.0000 0.0000 0.0000 0.0000 25.2504 0.0000
# 6 0.0000 0.0000 0.0000 0.0000 0.0000 38.5977
#
#
#
# Elastic Compliance Matrix: (Units=1/GPa)
#
#
# Indices 1 2 3 4 5 6 
#
# 1 0.010059 -0.003166 -0.004400 0.000000 0.000000 0.000000
# 2 -0.003166 0.010059 -0.004400 0.000000 0.000000 0.000000
# 3 -0.004400 -0.004400 0.021989 0.000000 0.000000 0.000000
# 4 0.000000 0.000000 0.000000 0.039603 0.000000 0.000000
# 5 0.000000 0.000000 0.000000 0.000000 0.039603 0.000000
# 6 0.000000 0.000000 0.000000 0.000000 0.000000 0.025908
#
#
# Mechanical properties :
#
#
# Convention : Reuss Voigt Hill
#
# Bulk Modulus (GPa) = 55.02389 67.42199 61.22294
# Shear Modulus (GPa) = 28.21481 30.74969 29.48225
#
# Velocity S-wave (km/s) = 3.88480 4.05556 3.97110
# Velocity P-wave (km/s) = 7.03944 7.61532 7.33303
#
# Compressibility (1/GPa) = 0.01817392
#
# Stress axis : x y z
#
# Youngs Moduli (GPa) = 99.41441 99.41441 45.47817
#
# Poissons Ratio (x) = 0.31479 0.20010
# Poissons Ratio (y) = 0.31479 0.20010
# Poissons Ratio (z) = 0.43741 0.43741
#
# Static dielectric constant tensor:
#      x y z
#    x 1.674850 0.000000 0.000000 
#    y 0.000000 1.674850 0.000000 
#    z 0.000000 0.000000 1.660950 
# 
# From -- ./inp_files/7907.got.cif
#   From: 2010.05.17/outbox.cif.g08.bks.cpg/sg122_4_cif.got.tgz:7907.got - 2010.05.20 11:37:33.
