data_PCOD9561867
_publ_section_title
;
Structure prediction by ZEFSAII (Michael W. Deem and Ramdas Pophale) SiO2 
 PCOD9561867
Probable space group: P 4/M M M
;
_chemical_formula_sum "Si O2"
_cell_formula_units_Z 120
_cell_length_a 18.026188
_cell_length_b 18.026188
_cell_length_c 23.479519
_cell_angle_alpha 90.000000
_cell_angle_beta 90.000000
_cell_angle_gamma 90.000000
_cell_volume 7629.515998
_symmetry_space_group_name_H-M "P 4/M M M"
_symmetry_group_IT_number 123
_symmetry_cell_setting 'tetragonal'
loop_
_space_group_symop_operation_xyz
x,y,z
-y,x,z
-x,-y,z
y,-x,z
x,-y,-z
-x,y,-z
y,x,-z
-y,-x,-z
-x,-y,-z
y,-x,-z
x,y,-z
-y,x,-z
-x,y,z
x,-y,z
-y,-x,z
y,x,z
loop_
_atom_site_type_symbol
_atom_site_label
_atom_site_fract_x
_atom_site_fract_y
_atom_site_fract_z
Si Si1 0.207124 0.087408 0.180903
Si Si2 0.913905 0.289836 0.935642
Si Si3 0.705344 0.413026 0.179579
Si Si4 0.143725 0.412436 0.638637
Si Si5 0.789888 0.414235 0.935787
Si Si6 0.294863 0.415881 0.567868
Si Si7 0.410229 0.000000 0.565020
Si Si8 0.688228 0.189474 0.742878
O O1 0.130220 0.130220 0.190270
O O2 0.232301 0.098192 0.115229
O O3 0.268342 0.128480 0.219821
O O4 0.203454 0.000000 0.192517
O O5 0.858003 0.358183 0.927860
O O6 0.000000 0.314129 0.931936
O O7 0.902240 0.260238 0.000000
O O8 0.704411 0.500000 0.192974
O O9 0.627044 0.372957 0.188582
O O10 0.730834 0.402980 0.114078
O O11 0.765092 0.369063 0.217536
O O12 0.135293 0.500000 0.654841
O O13 0.218309 0.406728 0.601215
O O14 0.073483 0.390312 0.600132
O O15 0.153593 0.358695 0.692189
O O16 0.815015 0.500000 0.931802
O O17 0.760371 0.402756 0.000000
O O18 0.281779 0.408571 0.500000
O O19 0.321974 0.500000 0.577986
O O20 0.355533 0.355533 0.585286
O O21 0.500000 0.000000 0.561636
O O22 0.382187 0.000000 0.500000
O O23 0.750319 0.249681 0.723218
#
# Coordination Sequence:
#
# PCOD9561867 Si02
#       8
#    16  16  16  16  16  16   8  16
#     4  10  21  36  53  74 100 129 161 200 244 293
#     4   9  17  30  49  73 100 129 162 200 245 300
#     4  10  20  34  50  69  96 129 169 215 260 306
#     4  10  19  31  49  71  98 132 165 200 242 289
#     4   9  17  29  46  68  94 126 165 209 259 312
#     4   9  17  29  46  69  97 129 165 203 242 285
#     4   9  18  32  50  74 102 132 166 200 236 285
#     4  10  20  34  52  73  98 130 165 205 248 291
#
# _framework density 15.728389999999999
#
# number of rings (size 3 to 8) (size 9 to 14) (size 15 to 20)
#    0.000    2.467    1.333    1.200    0.933    2.800 
#    0.000    3.333    0.000    0.000    0.000    5.600 
#    0.000    0.000    0.000    0.000    0.000    5.867 
#
# Total GULP energy -668786.353497 kJ/mol
# GULP energy per Si atom -5573.219612 kJ/mol
# Density = 1.569259 g / cm^3
# Si number density = 15.728390 Si / 1000 Ang^3
#
#
#
# Elastic Constant Matrix: (Units=GPa)
#
#
# Indices 1 2 3 4 5 6 
#
# 1 98.4312 64.9822 52.4440 0.0000 0.0000 0.0000
# 2 64.9822 98.4312 52.4440 0.0000 0.0000 0.0000
# 3 52.4440 52.4440 84.7234 0.0000 0.0000 0.0000
# 4 0.0000 0.0000 0.0000 22.0017 0.0000 0.0000
# 5 0.0000 0.0000 0.0000 0.0000 22.0017 0.0000
# 6 0.0000 0.0000 0.0000 0.0000 0.0000 13.9858
#
#
#
# Elastic Compliance Matrix: (Units=1/GPa)
#
#
# Indices 1 2 3 4 5 6 
#
# 1 0.020025 -0.009871 -0.006285 0.000000 0.000000 0.000000
# 2 -0.009871 0.020025 -0.006285 0.000000 0.000000 0.000000
# 3 -0.006285 -0.006285 0.019584 0.000000 0.000000 0.000000
# 4 0.000000 0.000000 0.000000 0.045451 0.000000 0.000000
# 5 0.000000 0.000000 0.000000 0.000000 0.045451 0.000000
# 6 0.000000 0.000000 0.000000 0.000000 0.000000 0.071501
#
#
# Mechanical properties :
#
#
# Convention : Reuss Voigt Hill
#
# Bulk Modulus (GPa) = 67.79256 69.03624 68.41440
# Shear Modulus (GPa) = 18.39337 19.04554 18.71946
#
# Velocity S-wave (km/s) = 3.42341 3.48358 3.45363
# Velocity P-wave (km/s) = 7.66955 7.75683 7.71331
#
# Compressibility (1/GPa) = 0.01475088
#
# Stress axis : x y z
#
# Youngs Moduli (GPa) = 49.93779 49.93779 51.06182
#
# Poissons Ratio (x) = 0.49295 0.32093
# Poissons Ratio (y) = 0.49295 0.32093
# Poissons Ratio (z) = 0.31386 0.31386
#
# Static dielectric constant tensor:
#      x y z
#    x 1.505890 0.000000 0.000000 
#    y 0.000000 1.505890 0.000000 
#    z 0.000000 0.000000 1.529010 
# 
# From -- ./inp_files/6841.got.cif
#   From: 2010.05.17/outbox.cif.g08.bks.cpg/sg123_4_cif.got.tgz:6841.got - 2010.05.20 11:43:04.
