data_PCOD9561798
_publ_section_title
;
Structure prediction by ZEFSAII (Michael W. Deem and Ramdas Pophale) SiO2 
 PCOD9561798
Probable space group: P 4/M M M
;
_chemical_formula_sum "Si O2"
_cell_formula_units_Z 80
_cell_length_a 12.894592
_cell_length_b 12.894592
_cell_length_c 29.587219
_cell_angle_alpha 90.000000
_cell_angle_beta 90.000000
_cell_angle_gamma 90.000000
_cell_volume 4919.481781
_symmetry_space_group_name_H-M "P 4/M M M"
_symmetry_group_IT_number 123
_symmetry_cell_setting 'tetragonal'
loop_
_space_group_symop_operation_xyz
x,y,z
-y,x,z
-x,-y,z
y,-x,z
x,-y,-z
-x,y,-z
y,x,-z
-y,-x,-z
-x,-y,-z
y,-x,-z
x,y,-z
-y,x,-z
-x,y,z
x,-y,z
-y,-x,z
y,x,z
loop_
_atom_site_type_symbol
_atom_site_label
_atom_site_fract_x
_atom_site_fract_y
_atom_site_fract_z
Si Si1 0.286411 0.876171 0.854536
Si Si2 0.378797 0.208556 0.554067
Si Si3 0.874297 0.620050 0.049407
Si Si4 0.206201 0.378354 0.235486
Si Si5 0.374021 0.000000 0.605819
Si Si6 0.000000 0.374218 0.709546
O O1 0.174252 0.825749 0.846219
O O2 0.322053 0.845489 0.904903
O O3 0.361171 0.827937 0.816590
O O4 0.287077 0.000000 0.850782
O O5 0.373098 0.191094 0.500000
O O6 0.500000 0.228943 0.565021
O O7 0.305199 0.305199 0.565323
O O8 0.343870 0.104737 0.579797
O O9 0.841865 0.500000 0.052645
O O10 0.000000 0.620851 0.048876
O O11 0.840594 0.660409 0.000000
O O12 0.227197 0.500000 0.243870
O O13 0.304055 0.304055 0.244718
O O14 0.105558 0.344414 0.264678
O O15 0.500000 0.000000 0.605743
O O16 0.338873 0.000000 0.657693
O O17 0.000000 0.500000 0.709729
#
# Coordination Sequence:
#
# PCOD9561798 Si02
#       6
#    16  16  16  16   8   8
#     4  10  19  30  46  67  93 127 164 203 247 295
#     4   9  17  29  47  73 104 137 172 210 253 299
#     4   8  14  25  42  63  85 112 150 197 245 292
#     4  10  20  34  53  76 100 127 161 202 249 299
#     4   9  17  30  49  71  96 131 172 210 245 286
#     4   9  18  33  52  72  96 128 167 206 244 297
#
# _framework density 16.261876000000001
#
# number of rings (size 3 to 8) (size 9 to 14) (size 15 to 20)
#    0.000    2.800    1.000    1.500    0.000    3.800 
#    0.000    1.000    0.000    0.600    0.000   11.200 
#    0.000    0.000    0.000   18.600    0.000    1.000 
#
# Total GULP energy -445354.034921 kJ/mol
# GULP energy per Si atom -5566.925437 kJ/mol
# Density = 1.622486 g / cm^3
# Si number density = 16.261876 Si / 1000 Ang^3
#
#
#
# Elastic Constant Matrix: (Units=GPa)
#
#
# Indices 1 2 3 4 5 6 
#
# 1 85.2324 61.0083 42.9584 0.0000 0.0000 0.0000
# 2 61.0083 85.2324 42.9584 0.0000 0.0000 0.0000
# 3 42.9584 42.9584 79.4569 0.0000 0.0000 0.0000
# 4 0.0000 0.0000 0.0000 13.1806 0.0000 0.0000
# 5 0.0000 0.0000 0.0000 0.0000 13.1806 0.0000
# 6 0.0000 0.0000 0.0000 0.0000 0.0000 11.9334
#
#
#
# Elastic Compliance Matrix: (Units=1/GPa)
#
#
# Indices 1 2 3 4 5 6 
#
# 1 0.025651 -0.015630 -0.005418 0.000000 0.000000 0.000000
# 2 -0.015630 0.025651 -0.005418 0.000000 0.000000 0.000000
# 3 -0.005418 -0.005418 0.018444 0.000000 0.000000 0.000000
# 4 0.000000 0.000000 0.000000 0.075869 0.000000 0.000000
# 5 0.000000 0.000000 0.000000 0.000000 0.075869 0.000000
# 6 0.000000 0.000000 0.000000 0.000000 0.000000 0.083798
#
#
# Mechanical properties :
#
#
# Convention : Reuss Voigt Hill
#
# Bulk Modulus (GPa) = 59.47294 60.41911 59.94603
# Shear Modulus (GPa) = 13.74309 14.52535 14.13422
#
# Velocity S-wave (km/s) = 2.91023 2.99191 2.95136
# Velocity P-wave (km/s) = 6.92416 7.01212 6.96828
#
# Compressibility (1/GPa) = 0.01681437
#
# Stress axis : x y z
#
# Youngs Moduli (GPa) = 38.98454 38.98454 54.21866
#
# Poissons Ratio (x) = 0.60933 0.29375
# Poissons Ratio (y) = 0.60933 0.29375
# Poissons Ratio (z) = 0.21121 0.21121
#
# Static dielectric constant tensor:
#      x y z
#    x 1.531030 0.000000 0.000000 
#    y 0.000000 1.531030 0.000000 
#    z 0.000000 0.000000 1.565910 
# 
# From -- ./inp_files/8391.got.cif
#   From: 2010.05.17/outbox.cif.g08.bks.cpg/sg123_5_cif.got.tgz:8391.got - 2010.05.20 11:43:04.
