data_PCOD9561058
_publ_section_title
;
Structure prediction by ZEFSAII (Michael W. Deem and Ramdas Pophale) SiO2 
 PCOD9561058
Probable space group: I -4 2 D
;
_chemical_formula_sum "Si O2"
_cell_formula_units_Z 96
_cell_length_a 14.557032
_cell_length_b 14.557032
_cell_length_c 21.599938
_cell_angle_alpha 90.000000
_cell_angle_beta 90.000000
_cell_angle_gamma 90.000000
_cell_volume 4577.181964
_symmetry_space_group_name_H-M "I -4 2 D"
_symmetry_group_IT_number 122
_symmetry_cell_setting 'tetragonal'
loop_
_space_group_symop_operation_xyz
x,y,z
y,-x,-z
-x,-y,z
-y,x,-z
x,1/2-y,1/4-z
-x,1/2+y,1/4-z
-y,1/2-x,1/4+z
y,1/2+x,1/4+z
1/2+x,1/2+y,1/2+z
1/2+y,1/2-x,1/2-z
1/2-x,1/2-y,1/2+z
1/2-y,1/2+x,1/2-z
1/2+x,-y,3/4-z
1/2-x,y,3/4-z
1/2-y,-x,3/4+z
1/2+y,x,3/4+z
loop_
_atom_site_type_symbol
_atom_site_label
_atom_site_fract_x
_atom_site_fract_y
_atom_site_fract_z
Si Si1 0.153439 0.395372 0.394110
Si Si2 0.870041 0.546218 0.728065
Si Si3 0.939034 0.409236 0.905533
Si Si4 0.124826 0.534250 0.279797
Si Si5 0.546027 0.819779 0.503827
Si Si6 0.998487 0.833945 0.766679
O O1 0.250000 0.346357 0.375000
O O2 0.127649 0.470242 0.340888
O O3 0.182286 0.458339 0.451767
O O4 0.066820 0.340163 0.422369
O O5 0.905152 0.440408 0.725415
O O6 0.879660 0.594240 0.661533
O O7 0.765428 0.539657 0.745922
O O8 0.000000 0.500000 0.896866
O O9 0.007095 0.333914 0.935166
O O10 0.865879 0.438165 0.957615
O O11 0.039835 0.603847 0.274880
O O12 0.219591 0.587510 0.266228
O O13 0.599991 0.912499 0.521372
#
# Coordination Sequence:
#
# PCOD9561058 Si02
#       6
#    16  16  16  16  16  16
#     4   9  19  39  61  91 126 165 209 257 318 404
#     4  11  23  42  64  89 126 162 213 268 333 386
#     4   9  18  40  63  86 118 164 203 260 311 394
#     4  10  22  34  58  90 128 169 208 266 321 384
#     4   9  20  38  60  88 122 164 217 249 321 386
#     4  10  22  39  69  89 125 175 212 266 337 386
#
# _framework density 20.973603000000001
#
# number of rings (size 3 to 8) (size 9 to 14) (size 15 to 20)
#    0.000    2.333    1.667    1.500    7.000    0.667 
#    9.000    0.000    0.000    0.000    0.000    0.000 
#    0.000    0.000    0.000    0.000    0.000    0.000 
#
# Total GULP energy -267257.138348 kJ/mol
# GULP energy per Si atom -5567.857049 kJ/mol
# Density = 2.092587 g / cm^3
# Si number density = 20.973603 Si / 1000 Ang^3
#
#
#
# Elastic Constant Matrix: (Units=GPa)
#
#
# Indices 1 2 3 4 5 6 
#
# 1 63.1970 -2.0112 5.8797 0.0000 0.0000 0.0000
# 2 -2.0112 63.1970 5.8797 0.0000 0.0000 0.0000
# 3 5.8797 5.8797 87.0216 0.0000 0.0000 0.0000
# 4 0.0000 0.0000 0.0000 17.2947 0.0000 0.0000
# 5 0.0000 0.0000 0.0000 0.0000 17.2947 0.0000
# 6 0.0000 0.0000 0.0000 0.0000 0.0000 10.6936
#
#
#
# Elastic Compliance Matrix: (Units=1/GPa)
#
#
# Indices 1 2 3 4 5 6 
#
# 1 0.015947 0.000612 -0.001119 0.000000 0.000000 0.000000
# 2 0.000612 0.015947 -0.001119 0.000000 0.000000 0.000000
# 3 -0.001119 -0.001119 0.011643 0.000000 0.000000 0.000000
# 4 0.000000 0.000000 0.000000 0.057821 0.000000 0.000000
# 5 0.000000 0.000000 0.000000 0.000000 0.057821 0.000000
# 6 0.000000 0.000000 0.000000 0.000000 0.000000 0.093514
#
#
# Mechanical properties :
#
#
# Convention : Reuss Voigt Hill
#
# Bulk Modulus (GPa) = 24.82333 25.87915 25.35124
# Shear Modulus (GPa) = 18.56161 22.63442 20.59801
#
# Velocity S-wave (km/s) = 2.97812 3.28866 3.13723
# Velocity P-wave (km/s) = 4.86691 5.17553 5.02359
#
# Compressibility (1/GPa) = 0.04028468
#
# Stress axis : x y z
#
# Youngs Moduli (GPa) = 62.70739 62.70739 85.89160
#
# Poissons Ratio (x) = -0.03835 0.09610
# Poissons Ratio (y) = -0.03835 0.09610
# Poissons Ratio (z) = 0.07016 0.07016
#
# Static dielectric constant tensor:
#      x y z
#    x 1.817010 0.000000 0.000000 
#    y 0.000000 1.817010 0.000000 
#    z 0.000000 0.000000 1.798080 
# 
# From -- ./inp_files/7306.got.cif
#   From: 2010.05.17/outbox.cif.g08.bks.cpg/sg122_4_cif.got.tgz:7306.got - 2010.05.20 11:37:33.
