data_PCOD9561510
_publ_section_title
;
Structure prediction by ZEFSAII (Michael W. Deem and Ramdas Pophale) SiO2 
 PCOD9561510
Probable space group: I -4 2 D
;
_chemical_formula_sum "Si O2"
_cell_formula_units_Z 56
_cell_length_a 13.819780
_cell_length_b 13.819780
_cell_length_c 12.752795
_cell_angle_alpha 90.000000
_cell_angle_beta 90.000000
_cell_angle_gamma 90.000000
_cell_volume 2435.609377
_symmetry_space_group_name_H-M "I -4 2 D"
_symmetry_group_IT_number 122
_symmetry_cell_setting 'tetragonal'
loop_
_space_group_symop_operation_xyz
x,y,z
y,-x,-z
-x,-y,z
-y,x,-z
x,1/2-y,1/4-z
-x,1/2+y,1/4-z
-y,1/2-x,1/4+z
y,1/2+x,1/4+z
1/2+x,1/2+y,1/2+z
1/2+y,1/2-x,1/2-z
1/2-x,1/2-y,1/2+z
1/2-y,1/2+x,1/2-z
1/2+x,-y,3/4-z
1/2-x,y,3/4-z
1/2-y,-x,3/4+z
1/2+y,x,3/4+z
loop_
_atom_site_type_symbol
_atom_site_label
_atom_site_fract_x
_atom_site_fract_y
_atom_site_fract_z
Si Si1 0.975415 0.353652 0.578140
Si Si2 0.000000 0.000000 0.000000
Si Si3 0.500000 0.000000 0.250000
Si Si4 0.771814 0.072313 0.758491
Si Si5 0.104237 0.868737 0.151671
O O1 0.953672 0.250000 0.625000
O O2 0.876860 0.400590 0.536295
O O3 0.020643 0.411982 0.674399
O O4 0.052400 0.360820 0.485719
O O5 0.911957 0.980263 0.922750
O O6 0.750000 0.112068 0.875000
O O7 0.785598 0.953214 0.779539
O O8 0.695928 0.124545 0.678870
#
# Coordination Sequence:
#
# PCOD9561510 Si02
#       5
#    16   4   4  16  16
#     4  12  26  46  72 104 146 200 259 319 407 478
#     4  12  18  44  76  94 144 200 242 300 400 482
#     4  12  22  52  72 102 148 196 258 336 400 490
#     4  12  25  45  77 110 153 197 261 326 399 486
#     4  12  23  46  74 106 144 206 252 320 402 484
#
# _framework density 22.992193
#
# number of rings (size 3 to 8) (size 9 to 14) (size 15 to 20)
#    0.000    0.000    8.571    1.714    0.000    1.143 
#    0.000    1.429    0.000    0.000    0.000    0.000 
#    0.000    0.000    0.000    0.000    0.000    0.000 
#
# Total GULP energy -155970.170747 kJ/mol
# GULP energy per Si atom -5570.363241 kJ/mol
# Density = 2.293986 g / cm^3
# Si number density = 22.992193 Si / 1000 Ang^3
#
#
#
# Elastic Constant Matrix: (Units=GPa)
#
#
# Indices 1 2 3 4 5 6 
#
# 1 108.7001 4.5863 33.4787 0.0000 0.0000 0.0000
# 2 4.5863 108.7001 33.4787 0.0000 0.0000 0.0000
# 3 33.4787 33.4787 148.8966 0.0000 0.0000 0.0000
# 4 0.0000 0.0000 0.0000 40.2784 0.0000 0.0000
# 5 0.0000 0.0000 0.0000 0.0000 40.2784 0.0000
# 6 0.0000 0.0000 0.0000 0.0000 0.0000 22.9642
#
#
#
# Elastic Compliance Matrix: (Units=1/GPa)
#
#
# Indices 1 2 3 4 5 6 
#
# 1 0.009892 0.000288 -0.002289 0.000000 0.000000 0.000000
# 2 0.000288 0.009892 -0.002289 0.000000 0.000000 0.000000
# 3 -0.002289 -0.002289 0.007745 0.000000 0.000000 0.000000
# 4 0.000000 0.000000 0.000000 0.024827 0.000000 0.000000
# 5 0.000000 0.000000 0.000000 0.000000 0.024827 0.000000
# 6 0.000000 0.000000 0.000000 0.000000 0.000000 0.043546
#
#
# Mechanical properties :
#
#
# Convention : Reuss Voigt Hill
#
# Bulk Modulus (GPa) = 52.77118 56.59823 54.68471
# Shear Modulus (GPa) = 36.86556 40.35441 38.60999
#
# Velocity S-wave (km/s) = 4.00859 4.19398 4.10233
# Velocity P-wave (km/s) = 6.66533 6.93703 6.80253
#
# Compressibility (1/GPa) = 0.01894974
#
# Stress axis : x y z
#
# Youngs Moduli (GPa) = 101.08709 101.08709 129.10920
#
# Poissons Ratio (x) = -0.02907 0.29552
# Poissons Ratio (y) = -0.02907 0.29552
# Poissons Ratio (z) = 0.23138 0.23138
#
# Static dielectric constant tensor:
#      x y z
#    x 1.955990 0.000000 0.000000 
#    y 0.000000 1.955990 0.000000 
#    z 0.000000 0.000000 1.826650 
# 
# From -- ./inp_files/3972.got.cif
#   From: 2010.05.17/outbox.cif.g08.bks.cpg/sg122_2_cif.got.tgz:3972.got - 2010.05.20 11:37:33.
