data_PCOD9561893
_publ_section_title
;
Structure prediction by ZEFSAII (Michael W. Deem and Ramdas Pophale) SiO2 
 PCOD9561893
Probable space group: P 4/M M M
;
_chemical_formula_sum "Si O2"
_cell_formula_units_Z 128
_cell_length_a 19.795268
_cell_length_b 19.795268
_cell_length_c 20.454219
_cell_angle_alpha 90.000000
_cell_angle_beta 90.000000
_cell_angle_gamma 90.000000
_cell_volume 8015.039616
_symmetry_space_group_name_H-M "P 4/M M M"
_symmetry_group_IT_number 123
_symmetry_cell_setting 'tetragonal'
loop_
_space_group_symop_operation_xyz
x,y,z
-y,x,z
-x,-y,z
y,-x,z
x,-y,-z
-x,y,-z
y,x,-z
-y,-x,-z
-x,-y,-z
y,-x,-z
x,y,-z
-y,x,-z
-x,y,z
x,-y,z
-y,-x,z
y,x,z
loop_
_atom_site_type_symbol
_atom_site_label
_atom_site_fract_x
_atom_site_fract_y
_atom_site_fract_z
Si Si1 0.422952 0.158829 0.107817
Si Si2 0.079994 0.294667 0.313011
Si Si3 0.684576 0.424029 0.102526
Si Si4 0.921209 0.809810 0.422372
Si Si5 0.576655 0.839440 0.733915
Si Si6 0.682745 0.575173 0.261560
Si Si7 0.710966 0.080668 0.072549
Si Si8 0.807297 0.080620 0.192636
O O1 0.500000 0.139264 0.089465
O O2 0.412959 0.236796 0.086471
O O3 0.418949 0.155061 0.187009
O O4 0.362057 0.114470 0.081280
O O5 0.097359 0.255550 0.379742
O O6 0.118984 0.363607 0.298862
O O7 0.093066 0.241150 0.254764
O O8 0.000000 0.308845 0.312924
O O9 0.665477 0.500000 0.081659
O O10 0.633423 0.366578 0.079247
O O11 0.682320 0.423542 0.182060
O O12 0.916046 0.797278 0.500000
O O13 0.872043 0.872043 0.406001
O O14 0.000000 0.825937 0.407611
O O15 0.500000 0.860046 0.715769
O O16 0.584888 0.760163 0.718325
O O17 0.660612 0.500000 0.281151
O O18 0.632934 0.632934 0.285296
O O19 0.763204 0.100604 0.129051
O O20 0.702369 0.000000 0.078175
O O21 0.737047 0.096390 0.000000
O O22 0.873925 0.126076 0.196796
O O23 0.821702 0.000000 0.189797
#
# Coordination Sequence:
#
# PCOD9561893 Si02
#       8
#    16  16  16  16  16  16  16  16
#     4   9  17  30  46  67  95 122 152 193 239 288
#     4  10  19  32  50  73  99 127 162 201 239 281
#     4   8  14  24  38  58  84 113 145 181 221 267
#     4   9  18  32  50  74 104 135 166 202 244 291
#     4   9  17  29  45  68  97 126 159 198 237 280
#     4   8  14  23  35  55  84 116 150 187 226 269
#     4  10  21  36  51  69  94 121 152 194 242 291
#     4  10  21  36  53  74  97 123 158 198 241 291
#
# _framework density 15.969977
#
# number of rings (size 3 to 8) (size 9 to 14) (size 15 to 20)
#    0.000    2.875    1.250    1.875    0.000    3.000 
#    0.000    3.750    0.000    2.625    0.000    3.500 
#    0.000    0.000    0.000    2.750    0.000    2.750 
#
# Total GULP energy -713231.682617 kJ/mol
# GULP energy per Si atom -5572.122520 kJ/mol
# Density = 1.593363 g / cm^3
# Si number density = 15.969977 Si / 1000 Ang^3
#
#
#
# Elastic Constant Matrix: (Units=GPa)
#
#
# Indices 1 2 3 4 5 6 
#
# 1 78.8594 67.0406 35.3441 0.0000 0.0000 0.0000
# 2 67.0406 78.8594 35.3441 0.0000 0.0000 0.0000
# 3 35.3441 35.3441 43.4418 0.0000 0.0000 0.0000
# 4 0.0000 0.0000 0.0000 6.1524 0.0000 0.0000
# 5 0.0000 0.0000 0.0000 0.0000 6.1524 0.0000
# 6 0.0000 0.0000 0.0000 0.0000 0.0000 50.8148
#
#
#
# Elastic Compliance Matrix: (Units=1/GPa)
#
#
# Indices 1 2 3 4 5 6 
#
# 1 0.047962 -0.036649 -0.009205 0.000000 0.000000 0.000000
# 2 -0.036649 0.047962 -0.009205 0.000000 0.000000 0.000000
# 3 -0.009205 -0.009205 0.037997 0.000000 0.000000 0.000000
# 4 0.000000 0.000000 0.000000 0.162537 0.000000 0.000000
# 5 0.000000 0.000000 0.000000 0.000000 0.162537 0.000000
# 6 0.000000 0.000000 0.000000 0.000000 0.000000 0.019679
#
#
# Mechanical properties :
#
#
# Convention : Reuss Voigt Hill
#
# Bulk Modulus (GPa) = 42.00707 52.95757 47.48232
# Shear Modulus (GPa) = 8.37903 16.85273 12.61588
#
# Velocity S-wave (km/s) = 2.29306 3.25202 2.81370
# Velocity P-wave (km/s) = 5.77683 6.87994 6.35237
#
# Compressibility (1/GPa) = 0.02380552
#
# Stress axis : x y z
#
# Youngs Moduli (GPa) = 20.84963 20.84963 26.31774
#
# Poissons Ratio (x) = 0.76411 0.24225
# Poissons Ratio (y) = 0.76411 0.24225
# Poissons Ratio (z) = 0.19192 0.19192
#
# Static dielectric constant tensor:
#      x y z
#    x 1.523780 0.000000 0.000000 
#    y 0.000000 1.523780 0.000000 
#    z 0.000000 0.000000 1.545820 
# 
# From -- ./inp_files/7679.got.cif
#   From: 2010.05.17/outbox.cif.g08.bks.cpg/sg123_4_cif.got.tgz:7679.got - 2010.05.20 11:43:04.
