data_PCOD9561478
_publ_section_title
;
Structure prediction by ZEFSAII (Michael W. Deem and Ramdas Pophale) SiO2 
 PCOD9561478
Probable space group: I -4 2 D
;
_chemical_formula_sum "Si O2"
_cell_formula_units_Z 40
_cell_length_a 19.100071
_cell_length_b 19.100071
_cell_length_c 5.125095
_cell_angle_alpha 90.000000
_cell_angle_beta 90.000000
_cell_angle_gamma 90.000000
_cell_volume 1869.699807
_symmetry_space_group_name_H-M "I -4 2 D"
_symmetry_group_IT_number 122
_symmetry_cell_setting 'tetragonal'
loop_
_space_group_symop_operation_xyz
x,y,z
y,-x,-z
-x,-y,z
-y,x,-z
x,1/2-y,1/4-z
-x,1/2+y,1/4-z
-y,1/2-x,1/4+z
y,1/2+x,1/4+z
1/2+x,1/2+y,1/2+z
1/2+y,1/2-x,1/2-z
1/2-x,1/2-y,1/2+z
1/2-y,1/2+x,1/2-z
1/2+x,-y,3/4-z
1/2-x,y,3/4-z
1/2-y,-x,3/4+z
1/2+y,x,3/4+z
loop_
_atom_site_type_symbol
_atom_site_label
_atom_site_fract_x
_atom_site_fract_y
_atom_site_fract_z
Si Si1 0.701601 0.250000 0.125000
Si Si2 0.054620 0.199669 0.874357
Si Si3 0.897453 0.324110 0.279135
O O1 0.750000 0.234108 0.375000
O O2 0.650220 0.311423 0.215644
O O3 0.055918 0.250000 0.625000
O O4 0.114153 0.140643 0.875470
O O5 0.064583 0.250000 0.125000
O O6 0.977962 0.164902 0.899758
O O7 0.895022 0.250000 0.125000
#
# Coordination Sequence:
#
# PCOD9561478 Si02
#       3
#     8  16  16
#     4  12  24  38  72 102 136 180 236 304 360 422
#     4  11  27  43  70 102 143 185 236 303 359 437
#     4  11  26  46  68 106 142 184 242 298 367 441
#
# _framework density 21.393809000000001
#
# number of rings (size 3 to 8) (size 9 to 14) (size 15 to 20)
#    0.000    0.800    4.000    1.200   11.200    0.800 
#    0.000    0.000    0.000    4.800    0.000    0.000 
#    0.000    0.000    0.000    0.000    0.000    0.000 
#
# Total GULP energy -111932.806742 kJ/mol
# GULP energy per Si atom -5596.640337 kJ/mol
# Density = 2.134512 g / cm^3
# Si number density = 21.393809 Si / 1000 Ang^3
#
#
#
# Elastic Constant Matrix: (Units=GPa)
#
#
# Indices 1 2 3 4 5 6 
#
# 1 180.7431 89.2523 52.0023 0.0000 0.0000 0.0000
# 2 89.2523 180.7431 52.0023 0.0000 0.0000 0.0000
# 3 52.0023 52.0023 143.6978 0.0000 0.0000 0.0000
# 4 0.0000 0.0000 0.0000 16.0374 0.0000 0.0000
# 5 0.0000 0.0000 0.0000 0.0000 16.0374 0.0000
# 6 0.0000 0.0000 0.0000 0.0000 0.0000 29.8373
#
#
#
# Elastic Compliance Matrix: (Units=1/GPa)
#
#
# Indices 1 2 3 4 5 6 
#
# 1 0.007617 -0.003313 -0.001557 0.000000 0.000000 0.000000
# 2 -0.003313 0.007617 -0.001557 0.000000 0.000000 0.000000
# 3 -0.001557 -0.001557 0.008086 0.000000 0.000000 0.000000
# 4 0.000000 0.000000 0.000000 0.062354 0.000000 0.000000
# 5 0.000000 0.000000 0.000000 0.000000 0.062354 0.000000
# 6 0.000000 0.000000 0.000000 0.000000 0.000000 0.033515
#
#
# Mechanical properties :
#
#
# Convention : Reuss Voigt Hill
#
# Bulk Modulus (GPa) = 95.56668 99.07751 97.32210
# Shear Modulus (GPa) = 25.26685 33.17756 29.22220
#
# Velocity S-wave (km/s) = 3.44035 3.94229 3.69984
# Velocity P-wave (km/s) = 7.78129 8.19354 7.99008
#
# Compressibility (1/GPa) = 0.01046390
#
# Stress axis : x y z
#
# Youngs Moduli (GPa) = 131.28716 131.28716 123.66604
#
# Poissons Ratio (x) = 0.43498 0.19260
# Poissons Ratio (y) = 0.43498 0.19260
# Poissons Ratio (z) = 0.20447 0.20447
#
# Static dielectric constant tensor:
#      x y z
#    x 1.788620 0.000000 0.000000 
#    y 0.000000 1.788620 0.000000 
#    z 0.000000 0.000000 1.838520 
# 
# From -- ./inp_files/413.got.cif
#   From: 2010.05.17/outbox.cif.g08.bks.cpg/sg122_1_cif.got.tgz:413.got - 2010.05.20 11:37:33.
