data_PCOD9561799
_publ_section_title
;
Structure prediction by ZEFSAII (Michael W. Deem and Ramdas Pophale) SiO2 
 PCOD9561799
Probable space group: P 4/M M M
;
_chemical_formula_sum "Si O2"
_cell_formula_units_Z 104
_cell_length_a 18.220196
_cell_length_b 18.220196
_cell_length_c 18.653578
_cell_angle_alpha 90.000000
_cell_angle_beta 90.000000
_cell_angle_gamma 90.000000
_cell_volume 6192.531672
_symmetry_space_group_name_H-M "P 4/M M M"
_symmetry_group_IT_number 123
_symmetry_cell_setting 'tetragonal'
loop_
_space_group_symop_operation_xyz
x,y,z
-y,x,z
-x,-y,z
y,-x,z
x,-y,-z
-x,y,-z
y,x,-z
-y,-x,-z
-x,-y,-z
y,-x,-z
x,y,-z
-y,x,-z
-x,y,z
x,-y,z
-y,-x,z
y,x,z
loop_
_atom_site_type_symbol
_atom_site_label
_atom_site_fract_x
_atom_site_fract_y
_atom_site_fract_z
Si Si1 0.086394 0.586043 0.694053
Si Si2 0.206416 0.915174 0.914917
Si Si3 0.294828 0.587328 0.500000
Si Si4 0.367927 0.915742 0.860111
Si Si5 0.698702 0.586929 0.224327
Si Si6 0.414178 0.230026 0.076970
Si Si7 0.223111 0.339828 0.360513
O O1 0.107690 0.500000 0.683271
O O2 0.094750 0.605205 0.778519
O O3 0.137470 0.641780 0.649678
O O4 0.000000 0.592929 0.677040
O O5 0.142876 0.857125 0.897582
O O6 0.280651 0.903376 0.869995
O O7 0.182820 0.000000 0.904543
O O8 0.224193 0.907008 0.000000
O O9 0.297620 0.500000 0.500000
O O10 0.374873 0.625128 0.500000
O O11 0.253278 0.618123 0.569877
O O12 0.406519 0.856518 0.909915
O O13 0.382918 0.000000 0.880381
O O14 0.705024 0.500000 0.228652
O O15 0.615823 0.615823 0.227757
O O16 0.732664 0.614243 0.149174
O O17 0.741279 0.622914 0.290243
O O18 0.500000 0.249370 0.074304
O O19 0.380643 0.249851 0.000000
O O20 0.257399 0.257399 0.363795
#
# Coordination Sequence:
#
# PCOD9561799 Si02
#       7
#    16  16   8  16  16  16  16
#     4  10  19  32  53  78 105 137 171 210 255 306
#     4   9  18  31  45  62  86 116 153 200 249 299
#     4  10  20  33  53  79 107 141 176 216 262 308
#     4  10  19  30  46  68  93 122 155 195 244 295
#     4  10  20  34  51  69  92 123 160 204 251 298
#     4  10  20  32  46  65  90 120 156 197 239 289
#     4  10  20  35  55  78 105 137 172 210 253 305
#
# _framework density 16.794423999999999
#
# number of rings (size 3 to 8) (size 9 to 14) (size 15 to 20)
#    0.000    2.154    1.538    2.308    0.000    3.769 
#    0.000    1.923    0.000    4.154    0.000    2.154 
#    0.000    0.308    0.000    0.000    0.000    4.308 
#
# Total GULP energy -579609.105992 kJ/mol
# GULP energy per Si atom -5573.164481 kJ/mol
# Density = 1.675620 g / cm^3
# Si number density = 16.794424 Si / 1000 Ang^3
#
#
#
# Elastic Constant Matrix: (Units=GPa)
#
#
# Indices 1 2 3 4 5 6 
#
# 1 54.5644 33.4873 18.7891 0.0000 0.0000 0.0000
# 2 33.4873 54.5649 18.7897 0.0000 0.0000 0.0000
# 3 18.7891 18.7897 82.3883 0.0000 0.0000 0.0000
# 4 0.0000 0.0000 0.0000 26.7361 0.0000 0.0000
# 5 0.0000 0.0000 0.0000 0.0000 26.7412 0.0000
# 6 0.0000 0.0000 0.0000 0.0000 0.0000 27.0156
#
#
#
# Elastic Compliance Matrix: (Units=1/GPa)
#
#
# Indices 1 2 3 4 5 6 
#
# 1 0.030013 -0.017431 -0.002869 0.000000 0.000000 0.000000
# 2 -0.017431 0.030013 -0.002869 0.000000 0.000000 0.000000
# 3 -0.002869 -0.002869 0.013446 0.000000 0.000000 0.000000
# 4 0.000000 0.000000 0.000000 0.037403 0.000000 0.000000
# 5 0.000000 0.000000 0.000000 0.000000 0.037396 0.000000
# 6 0.000000 0.000000 0.000000 0.000000 0.000000 0.037016
#
#
# Mechanical properties :
#
#
# Convention : Reuss Voigt Hill
#
# Bulk Modulus (GPa) = 36.85672 37.07221 36.96446
# Shear Modulus (GPa) = 20.77530 24.12866 22.45198
#
# Velocity S-wave (km/s) = 3.52097 3.79450 3.66029
# Velocity P-wave (km/s) = 6.20670 6.42804 6.31834
#
# Compressibility (1/GPa) = 0.02713209
#
# Stress axis : x y z
#
# Youngs Moduli (GPa) = 33.31887 33.31906 74.36938
#
# Poissons Ratio (x) = 0.58080 0.21338
# Poissons Ratio (y) = 0.58080 0.21340
# Poissons Ratio (z) = 0.09560 0.09561
#
# Static dielectric constant tensor:
#      x y z
#    x 1.584350 0.000000 0.000000 
#    y 0.000000 1.584350 0.000000 
#    z 0.000000 0.000000 1.569850 
# 
# From -- ./inp_files/5629.got.cif
#   From: 2010.05.17/outbox.cif.g08.bks.cpg/sg123_3_cif.got.tgz:5629.got - 2010.05.20 11:43:04.
