data_PCOD9561701
_publ_section_title
;
Structure prediction by ZEFSAII (Michael W. Deem and Ramdas Pophale) SiO2 
 PCOD9561701
Probable space group: P 4/M M M
;
_chemical_formula_sum "Si O2"
_cell_formula_units_Z 72
_cell_length_a 20.995179
_cell_length_b 20.995179
_cell_length_c 9.488179
_cell_angle_alpha 90.000000
_cell_angle_beta 90.000000
_cell_angle_gamma 90.000000
_cell_volume 4182.365974
_symmetry_space_group_name_H-M "P 4/M M M"
_symmetry_group_IT_number 123
_symmetry_cell_setting 'tetragonal'
loop_
_space_group_symop_operation_xyz
x,y,z
-y,x,z
-x,-y,z
y,-x,z
x,-y,-z
-x,y,-z
y,x,-z
-y,-x,-z
-x,-y,-z
y,-x,-z
x,y,-z
-y,x,-z
-x,y,z
x,-y,z
-y,-x,z
y,x,z
loop_
_atom_site_type_symbol
_atom_site_label
_atom_site_fract_x
_atom_site_fract_y
_atom_site_fract_z
Si Si1 0.571097 0.324993 0.171241
Si Si2 0.500000 0.925545 0.171046
Si Si3 0.926141 0.179092 0.838954
Si Si4 0.604315 0.820460 0.170147
Si Si5 0.267024 0.159033 0.663449
O O1 0.500000 0.346065 0.215203
O O2 0.627845 0.372155 0.220082
O O3 0.579412 0.250388 0.209545
O O4 0.572601 0.326626 0.000000
O O5 0.559799 0.880459 0.211263
O O6 0.500000 0.000000 0.219596
O O7 0.500000 0.928428 0.000000
O O8 0.883973 0.116028 0.822433
O O9 0.900893 0.230056 0.728346
O O10 0.000000 0.165585 0.821698
O O11 0.915493 0.202598 0.000000
O O12 0.671776 0.828142 0.243127
O O13 0.609024 0.821312 0.000000
O O14 0.283026 0.150097 0.500000
O O15 0.218231 0.218231 0.675070
#
# Coordination Sequence:
#
# PCOD9561701 Si02
#       5
#    16   8  16  16  16
#     4   9  16  26  43  69  99 131 166 207 256 310
#     4   9  18  32  51  75 102 132 168 213 261 311
#     4   9  18  33  53  77 104 134 170 212 259 312
#     4  10  18  32  53  75 100 131 173 217 260 312
#     4  10  21  35  51  74 104 137 174 215 258 305
#
# _framework density 17.215136000000001
#
# number of rings (size 3 to 8) (size 9 to 14) (size 15 to 20)
#    0.000    2.556    1.111    1.333    0.000    4.000 
#    0.000    5.000    0.000    0.667    0.000    3.111 
#    0.000    0.000    0.000    4.667    0.000    4.444 
#
# Total GULP energy -401025.139989 kJ/mol
# GULP energy per Si atom -5569.793611 kJ/mol
# Density = 1.717595 g / cm^3
# Si number density = 17.215136 Si / 1000 Ang^3
#
#
#
# Elastic Constant Matrix: (Units=GPa)
#
#
# Indices 1 2 3 4 5 6 
#
# 1 108.2014 39.5654 26.1483 0.0000 0.0000 0.0000
# 2 39.5654 108.2014 26.1483 0.0000 0.0000 0.0000
# 3 26.1483 26.1483 22.3662 0.0000 0.0000 0.0000
# 4 0.0000 0.0000 0.0000 6.9613 0.0000 0.0000
# 5 0.0000 0.0000 0.0000 0.0000 6.9613 0.0000
# 6 0.0000 0.0000 0.0000 0.0000 0.0000 -4.1867
#
#
#
# Elastic Compliance Matrix: (Units=1/GPa)
#
#
# Indices 1 2 3 4 5 6 
#
# 1 0.013057 -0.001513 -0.013496 0.000000 0.000000 0.000000
# 2 -0.001513 0.013057 -0.013496 0.000000 0.000000 0.000000
# 3 -0.013496 -0.013496 0.076266 0.000000 0.000000 0.000000
# 4 0.000000 0.000000 0.000000 0.143651 0.000000 0.000000
# 5 0.000000 0.000000 0.000000 0.000000 0.143651 0.000000
# 6 0.000000 0.000000 0.000000 0.000000 0.000000 -0.238854
#
#
# Mechanical properties :
#
#
# Convention : Reuss Voigt Hill
#
# Bulk Modulus (GPa) = 22.04077 46.94368 34.49223
# Shear Modulus (GPa) = 22.42555 11.74100 17.08327
#
# Velocity S-wave (km/s) = 3.61316 2.61438 3.15356
# Velocity P-wave (km/s) = 5.49886 6.03667 5.77403
#
# Compressibility (1/GPa) = 0.04537046
#
# Stress axis : x y z
#
# Youngs Moduli (GPa) = 76.58908 76.58908 13.11196
#
# Poissons Ratio (x) = 0.11587 0.17696
# Poissons Ratio (y) = 0.11587 0.17696
# Poissons Ratio (z) = 1.03363 1.03363
#
# Static dielectric constant tensor:
#      x y z
#    x 1.583670 0.000000 0.000000 
#    y 0.000000 1.583670 0.000000 
#    z 0.000000 0.000000 1.562680 
# 
# From -- ./inp_files/1057.got.cif
#   From: 2010.05.17/outbox.cif.g08.bks.cpg/sg123_1_cif.got.tgz:1057.got - 2010.05.20 11:43:04.
