data_PCOD9561161
_publ_section_title
;
Structure prediction by ZEFSAII (Michael W. Deem and Ramdas Pophale) SiO2 
 PCOD9561161
Probable space group: I -4 2 D
;
_chemical_formula_sum "Si O2"
_cell_formula_units_Z 64
_cell_length_a 10.566398
_cell_length_b 10.566398
_cell_length_c 25.384936
_cell_angle_alpha 90.000000
_cell_angle_beta 90.000000
_cell_angle_gamma 90.000000
_cell_volume 2834.196797
_symmetry_space_group_name_H-M "I -4 2 D"
_symmetry_group_IT_number 122
_symmetry_cell_setting 'tetragonal'
loop_
_space_group_symop_operation_xyz
x,y,z
y,-x,-z
-x,-y,z
-y,x,-z
x,1/2-y,1/4-z
-x,1/2+y,1/4-z
-y,1/2-x,1/4+z
y,1/2+x,1/4+z
1/2+x,1/2+y,1/2+z
1/2+y,1/2-x,1/2-z
1/2-x,1/2-y,1/2+z
1/2-y,1/2+x,1/2-z
1/2+x,-y,3/4-z
1/2-x,y,3/4-z
1/2-y,-x,3/4+z
1/2+y,x,3/4+z
loop_
_atom_site_type_symbol
_atom_site_label
_atom_site_fract_x
_atom_site_fract_y
_atom_site_fract_z
Si Si1 0.750000 0.116123 0.875000
Si Si2 0.183074 0.456905 0.662694
Si Si3 0.111194 0.353765 0.230568
Si Si4 0.000000 0.000000 0.676933
Si Si5 0.742054 0.107576 0.485866
O O1 0.631843 0.205690 0.890007
O O2 0.706157 0.048763 0.821874
O O3 0.115172 0.521253 0.613572
O O4 0.228746 0.551582 0.707398
O O5 0.092793 0.357260 0.694346
O O6 0.148378 0.501547 0.225988
O O7 0.241630 0.281362 0.240033
O O8 0.961586 0.880371 0.711988
#
# Coordination Sequence:
#
# PCOD9561161 Si02
#       5
#     8  16  16   8  16
#     4  10  22  44  66  96 142 186 230 304 354 418
#     4  11  22  43  65  99 144 175 241 301 348 432
#     4  10  23  49  70 102 150 185 239 305 357 440
#     4  12  22  43  68 104 142 194 227 310 368 422
#     4  11  25  41  72 104 138 194 243 294 369 443
#
# _framework density 22.581354999999999
#
# number of rings (size 3 to 8) (size 9 to 14) (size 15 to 20)
#    0.000    1.250    5.000    1.500    7.000    0.000 
#    9.000    0.000    0.000    0.000    0.000    0.000 
#    0.000    0.000    0.000    0.000    0.000    0.000 
#
# Total GULP energy -178843.400866 kJ/mol
# GULP energy per Si atom -5588.856277 kJ/mol
# Density = 2.252996 g / cm^3
# Si number density = 22.581355 Si / 1000 Ang^3
#
#
#
# Elastic Constant Matrix: (Units=GPa)
#
#
# Indices 1 2 3 4 5 6 
#
# 1 58.5650 18.9072 31.9131 0.0000 0.0000 0.0000
# 2 18.9072 58.5650 31.9131 0.0000 0.0000 0.0000
# 3 31.9131 31.9131 95.1875 0.0000 0.0000 0.0000
# 4 0.0000 0.0000 0.0000 32.7325 0.0000 0.0000
# 5 0.0000 0.0000 0.0000 0.0000 32.7325 0.0000
# 6 0.0000 0.0000 0.0000 0.0000 0.0000 32.5917
#
#
#
# Elastic Compliance Matrix: (Units=1/GPa)
#
#
# Indices 1 2 3 4 5 6 
#
# 1 0.021525 -0.003691 -0.005979 0.000000 0.000000 0.000000
# 2 -0.003691 0.021525 -0.005979 0.000000 0.000000 0.000000
# 3 -0.005979 -0.005979 0.014515 0.000000 0.000000 0.000000
# 4 0.000000 0.000000 0.000000 0.030551 0.000000 0.000000
# 5 0.000000 0.000000 0.000000 0.000000 0.030551 0.000000
# 6 0.000000 0.000000 0.000000 0.000000 0.000000 0.030683
#
#
# Mechanical properties :
#
#
# Convention : Reuss Voigt Hill
#
# Bulk Modulus (GPa) = 38.07197 41.97602 40.02400
# Shear Modulus (GPa) = 26.39895 28.25030 27.32463
#
# Velocity S-wave (km/s) = 3.42286 3.54085 3.48235
# Velocity P-wave (km/s) = 5.70244 5.94525 5.82511
#
# Compressibility (1/GPa) = 0.02626604
#
# Stress axis : x y z
#
# Youngs Moduli (GPa) = 46.45824 46.45824 68.89560
#
# Poissons Ratio (x) = 0.17148 0.41193
# Poissons Ratio (y) = 0.17148 0.41193
# Poissons Ratio (z) = 0.27778 0.27778
#
# Static dielectric constant tensor:
#      x y z
#    x 1.857410 0.000000 0.000000 
#    y 0.000000 1.857410 0.000000 
#    z 0.000000 0.000000 1.848330 
# 
# From -- ./inp_files/7890.got.cif
#   From: 2010.05.17/outbox.cif.g08.bks.cpg/sg122_4_cif.got.tgz:7890.got - 2010.05.20 11:37:33.
