data_PCOD9561030
_publ_section_title
;
Structure prediction by ZEFSAII (Michael W. Deem and Ramdas Pophale) SiO2 
 PCOD9561030
Probable space group: I -4 2 D
;
_chemical_formula_sum "Si O2"
_cell_formula_units_Z 120
_cell_length_a 14.069317
_cell_length_b 14.069317
_cell_length_c 32.165612
_cell_angle_alpha 90.000000
_cell_angle_beta 90.000000
_cell_angle_gamma 90.000000
_cell_volume 6367.043967
_symmetry_space_group_name_H-M "I -4 2 D"
_symmetry_group_IT_number 122
_symmetry_cell_setting 'tetragonal'
loop_
_space_group_symop_operation_xyz
x,y,z
y,-x,-z
-x,-y,z
-y,x,-z
x,1/2-y,1/4-z
-x,1/2+y,1/4-z
-y,1/2-x,1/4+z
y,1/2+x,1/4+z
1/2+x,1/2+y,1/2+z
1/2+y,1/2-x,1/2-z
1/2-x,1/2-y,1/2+z
1/2-y,1/2+x,1/2-z
1/2+x,-y,3/4-z
1/2-x,y,3/4-z
1/2-y,-x,3/4+z
1/2+y,x,3/4+z
loop_
_atom_site_type_symbol
_atom_site_label
_atom_site_fract_x
_atom_site_fract_y
_atom_site_fract_z
Si Si1 0.358134 0.250000 0.625000
Si Si2 0.887135 0.854570 0.825311
Si Si3 0.835058 0.237659 0.578479
Si Si4 0.643847 0.563790 0.996410
Si Si5 0.612487 0.517828 0.407188
Si Si6 0.734576 0.384270 0.237003
Si Si7 0.688311 0.894724 0.556132
Si Si8 0.085613 0.771921 0.013906
O O1 0.424917 0.323235 0.599658
O O2 0.305200 0.179889 0.593578
O O3 0.835811 0.753167 0.831446
O O4 0.870909 0.918446 0.866086
O O5 0.830132 0.896466 0.785665
O O6 0.000198 0.846156 0.818990
O O7 0.871346 0.250000 0.625000
O O8 0.910778 0.194552 0.546684
O O9 0.797515 0.334070 0.555920
O O10 0.711820 0.594096 0.033497
O O11 0.620897 0.453640 0.000639
O O12 0.500000 0.500000 0.411137
O O13 0.655196 0.565284 0.448237
O O14 0.650595 0.379747 0.270923
O O15 0.817957 0.315228 0.254638
O O16 0.767850 0.493184 0.234891
#
# Coordination Sequence:
#
# PCOD9561030 Si02
#       8
#     8  16  16  16  16  16  16  16
#     4  12  22  38  56  94 128 162 218 258 314 392
#     4  11  20  37  63  86 120 161 216 256 310 373
#     4  10  21  41  65  93 119 162 218 266 312 389
#     4  10  21  42  71  95 122 166 216 266 339 395
#     4  12  22  34  58  86 123 167 209 252 306 381
#     4  10  23  37  58  85 127 164 214 259 321 379
#     4  11  22  40  62  94 124 168 210 272 325 378
#     4  11  23  38  54  86 123 165 211 256 312 384
#
# _framework density 18.847051
#
# number of rings (size 3 to 8) (size 9 to 14) (size 15 to 20)
#    0.000    1.200    5.333    1.600    1.867    0.000 
#    3.600    0.000    0.000    6.400    0.000    0.000 
#    0.000    0.000    0.000    0.000    0.000    0.000 
#
# Total GULP energy -335094.591019 kJ/mol
# GULP energy per Si atom -5584.909850 kJ/mol
# Density = 1.880415 g / cm^3
# Si number density = 18.847051 Si / 1000 Ang^3
#
#
#
# Elastic Constant Matrix: (Units=GPa)
#
#
# Indices 1 2 3 4 5 6 
#
# 1 107.2632 9.9777 41.3448 0.0000 0.0000 0.0000
# 2 9.9777 107.2632 41.3448 0.0000 0.0000 0.0000
# 3 41.3448 41.3448 99.6116 0.0000 0.0000 0.0000
# 4 0.0000 0.0000 0.0000 22.4856 0.0000 0.0000
# 5 0.0000 0.0000 0.0000 0.0000 22.4856 0.0000
# 6 0.0000 0.0000 0.0000 0.0000 0.0000 34.9914
#
#
#
# Elastic Compliance Matrix: (Units=1/GPa)
#
#
# Indices 1 2 3 4 5 6 
#
# 1 0.011169 0.000890 -0.005006 0.000000 0.000000 0.000000
# 2 0.000890 0.011169 -0.005006 0.000000 0.000000 0.000000
# 3 -0.005006 -0.005006 0.014194 0.000000 0.000000 0.000000
# 4 0.000000 0.000000 0.000000 0.044473 0.000000 0.000000
# 5 0.000000 0.000000 0.000000 0.000000 0.044473 0.000000
# 6 0.000000 0.000000 0.000000 0.000000 0.000000 0.028578
#
#
# Mechanical properties :
#
#
# Convention : Reuss Voigt Hill
#
# Bulk Modulus (GPa) = 54.66971 55.49695 55.08333
# Shear Modulus (GPa) = 28.02755 30.75725 29.39240
#
# Velocity S-wave (km/s) = 3.86048 4.04411 3.95336
# Velocity P-wave (km/s) = 6.99579 7.16354 7.08016
#
# Compressibility (1/GPa) = 0.01829166
#
# Stress axis : x y z
#
# Youngs Moduli (GPa) = 89.52999 89.52999 70.45120
#
# Poissons Ratio (x) = -0.07972 0.35265
# Poissons Ratio (y) = -0.07972 0.35265
# Poissons Ratio (z) = 0.44815 0.44815
#
# Static dielectric constant tensor:
#      x y z
#    x 1.669410 0.000000 0.000000 
#    y 0.000000 1.669410 0.000000 
#    z 0.000000 0.000000 1.648830 
# 
# From -- ./inp_files/9737.got.cif
#   From: 2010.05.17/outbox.cif.g08.bks.cpg/sg122_5_cif.got.tgz:9737.got - 2010.05.20 11:37:33.
