data_PCOD9561963
_publ_section_title
;
Structure prediction by ZEFSAII (Michael W. Deem and Ramdas Pophale) SiO2 
 PCOD9561963
Probable space group: P 4/M M M
;
_chemical_formula_sum "Si O2"
_cell_formula_units_Z 88
_cell_length_a 17.974182
_cell_length_b 17.974182
_cell_length_c 13.066221
_cell_angle_alpha 90.000000
_cell_angle_beta 90.000000
_cell_angle_gamma 90.000000
_cell_volume 4221.319941
_symmetry_space_group_name_H-M "P 4/M M M"
_symmetry_group_IT_number 123
_symmetry_cell_setting 'tetragonal'
loop_
_space_group_symop_operation_xyz
x,y,z
-y,x,z
-x,-y,z
y,-x,z
x,-y,-z
-x,y,-z
y,x,-z
-y,-x,-z
-x,-y,-z
y,-x,-z
x,y,-z
-y,x,-z
-x,y,z
x,-y,z
-y,-x,z
y,x,z
loop_
_atom_site_type_symbol
_atom_site_label
_atom_site_fract_x
_atom_site_fract_y
_atom_site_fract_z
Si Si1 0.209435 0.911556 0.500000
Si Si2 0.793898 0.084918 0.724381
Si Si3 0.630102 0.249852 0.112479
Si Si4 0.589513 0.125237 0.610445
Si Si5 0.293146 0.585109 0.335211
Si Si6 0.356157 0.918350 0.170401
O O1 0.128835 0.871166 0.500000
O O2 0.240174 0.891245 0.612802
O O3 0.205537 0.000000 0.500000
O O4 0.860124 0.139877 0.747128
O O5 0.732000 0.086390 0.811039
O O6 0.819578 0.000000 0.713846
O O7 0.713767 0.286234 0.120593
O O8 0.589205 0.282199 0.211767
O O9 0.623731 0.160165 0.119414
O O10 0.602192 0.272345 0.000000
O O11 0.615725 0.095645 0.500000
O O12 0.500000 0.122707 0.609214
O O13 0.609070 0.212758 0.621248
O O14 0.612674 0.084605 0.713738
O O15 0.307994 0.500000 0.365516
O O16 0.357819 0.642182 0.364261
O O17 0.375472 0.000000 0.126220
#
# Coordination Sequence:
#
# PCOD9561963 Si02
#       6
#     8  16  16  16  16  16
#     4   8  14  23  34  50  75 109 143 177 218 264
#     4   9  17  28  41  60  88 119 153 192 234 283
#     4   9  18  34  54  72  95 131 169 203 247 307
#     4   9  19  35  52  70  97 135 172 202 237 287
#     4   9  18  33  53  79 108 134 165 202 240 289
#     4  10  20  31  48  73  98 123 158 212 262 299
#
# _framework density 20.846558999999999
#
# number of rings (size 3 to 8) (size 9 to 14) (size 15 to 20)
#    0.000    2.909    0.000    0.545    1.273    3.000 
#    0.000    2.727    0.000    0.000    0.000   10.182 
#    0.000    0.000    0.000   16.909    0.000    0.182 
#
# Total GULP energy -490246.757834 kJ/mol
# GULP energy per Si atom -5570.985884 kJ/mol
# Density = 2.079911 g / cm^3
# Si number density = 20.846559 Si / 1000 Ang^3
#
#
#
# Elastic Constant Matrix: (Units=GPa)
#
#
# Indices 1 2 3 4 5 6 
#
# 1 66.3509 22.7371 -3.5345 0.0000 0.0000 0.0000
# 2 22.7371 66.3495 -3.5343 0.0000 0.0000 0.0000
# 3 -3.5345 -3.5343 71.1584 0.0000 0.0000 0.0000
# 4 0.0000 0.0000 0.0000 2.9650 0.0000 0.0000
# 5 0.0000 0.0000 0.0000 0.0000 2.9650 0.0000
# 6 0.0000 0.0000 0.0000 0.0000 0.0000 6.9829
#
#
#
# Elastic Compliance Matrix: (Units=1/GPa)
#
#
# Indices 1 2 3 4 5 6 
#
# 1 0.017099 -0.005830 0.000560 0.000000 0.000000 0.000000
# 2 -0.005830 0.017099 0.000560 0.000000 0.000000 0.000000
# 3 0.000560 0.000560 0.014109 0.000000 0.000000 0.000000
# 4 0.000000 0.000000 0.000000 0.337265 0.000000 0.000000
# 5 0.000000 0.000000 0.000000 0.000000 0.337266 0.000000
# 6 0.000000 0.000000 0.000000 0.000000 0.000000 0.143207
#
#
# Mechanical properties :
#
#
# Convention : Reuss Voigt Hill
#
# Bulk Modulus (GPa) = 25.71592 26.13284 25.92438
# Shear Modulus (GPa) = 5.62792 15.12862 10.37827
#
# Velocity S-wave (km/s) = 1.64485 2.69683 2.23366
# Velocity P-wave (km/s) = 3.99625 4.71807 4.37208
#
# Compressibility (1/GPa) = 0.03888642
#
# Stress axis : x y z
#
# Youngs Moduli (GPa) = 58.48313 58.48191 70.87796
#
# Poissons Ratio (x) = 0.34094 -0.03967
# Poissons Ratio (y) = 0.34094 -0.03967
# Poissons Ratio (z) = -0.03274 -0.03273
#
# Static dielectric constant tensor:
#      x y z
#    x 1.759680 0.000000 0.000000 
#    y 0.000000 1.759680 0.000000 
#    z 0.000000 0.000000 1.777310 
# 
# From -- ./inp_files/4113.got.cif
#   From: 2010.05.17/outbox.cif.g08.bks.cpg/sg123_3_cif.got.tgz:4113.got - 2010.05.20 11:43:04.
