data_PCOD9561616
_publ_section_title
;
Structure prediction by ZEFSAII (Michael W. Deem and Ramdas Pophale) SiO2 
 PCOD9561616
Probable space group: P 4/M M M
;
_chemical_formula_sum "Si O2"
_cell_formula_units_Z 80
_cell_length_a 27.683962
_cell_length_b 27.683962
_cell_length_c 7.900526
_cell_angle_alpha 90.000000
_cell_angle_beta 90.000000
_cell_angle_gamma 90.000000
_cell_volume 6054.976968
_symmetry_space_group_name_H-M "P 4/M M M"
_symmetry_group_IT_number 123
_symmetry_cell_setting 'tetragonal'
loop_
_space_group_symop_operation_xyz
x,y,z
-y,x,z
-x,-y,z
y,-x,z
x,-y,-z
-x,y,-z
y,x,-z
-y,-x,-z
-x,-y,-z
y,-x,-z
x,y,-z
-y,x,-z
-x,y,z
x,-y,z
-y,-x,z
y,x,z
loop_
_atom_site_type_symbol
_atom_site_label
_atom_site_fract_x
_atom_site_fract_y
_atom_site_fract_z
Si Si1 0.231748 0.599994 0.190851
Si Si2 0.647132 0.723954 0.500000
Si Si3 0.925890 0.500000 0.307036
Si Si4 0.676357 0.143474 0.808211
Si Si5 0.191004 0.271560 0.500000
Si Si6 0.500000 0.819486 0.199739
Si Si7 0.054643 0.608344 0.704636
O O1 0.268485 0.616550 0.332088
O O2 0.186475 0.636795 0.195955
O O3 0.210893 0.547649 0.231654
O O4 0.251096 0.600413 0.000000
O O5 0.673909 0.673909 0.500000
O O6 0.688198 0.766189 0.500000
O O7 0.944508 0.500000 0.500000
O O8 0.868180 0.500000 0.304634
O O9 0.939880 0.552498 0.232676
O O10 0.715647 0.158370 0.665474
O O11 0.645391 0.095034 0.770650
O O12 0.696082 0.141238 0.000000
O O13 0.220193 0.220193 0.500000
O O14 0.500000 0.833276 0.000000
O O15 0.060417 0.606651 0.500000
O O16 0.000000 0.624099 0.743666
#
# Coordination Sequence:
#
# PCOD9561616 Si02
#       7
#    16   8   8  16   8   8  16
#     4   9  18  28  41  59  79  99 126 162 196 234
#     4   9  18  29  43  58  73  96 125 153 196 246
#     4  10  19  26  42  58  74 108 145 181 212 242
#     4  10  18  29  45  62  79 103 132 164 207 250
#     4   9  18  32  46  60  78  96 120 163 212 258
#     4  10  18  27  39  57  78 102 132 165 202 238
#     4  10  19  30  41  57  83 112 144 178 213 252
#
# _framework density 13.212272
#
# number of rings (size 3 to 8) (size 9 to 14) (size 15 to 20)
#    0.000    2.400    3.000    0.300    1.400    2.400 
#    0.000    4.000    0.000    1.800    0.000    0.000 
#    0.000    0.000    0.000    0.000    0.000    4.000 
#
# Total GULP energy -445537.404744 kJ/mol
# GULP energy per Si atom -5569.217559 kJ/mol
# Density = 1.318220 g / cm^3
# Si number density = 13.212272 Si / 1000 Ang^3
#
#
#
# Elastic Constant Matrix: (Units=GPa)
#
#
# Indices 1 2 3 4 5 6 
#
# 1 50.9378 36.2774 45.5688 0.0000 0.0000 0.0000
# 2 36.2774 50.9378 45.5688 0.0000 0.0000 0.0000
# 3 45.5688 45.5688 76.9512 0.0000 0.0000 0.0000
# 4 0.0000 0.0000 0.0000 2.7186 0.0000 0.0000
# 5 0.0000 0.0000 0.0000 0.0000 2.7186 0.0000
# 6 0.0000 0.0000 0.0000 0.0000 0.0000 -138.1934
#
#
#
# Elastic Compliance Matrix: (Units=1/GPa)
#
#
# Indices 1 2 3 4 5 6 
#
# 1 0.049145 -0.019066 -0.017812 0.000000 0.000000 0.000000
# 2 -0.019066 0.049145 -0.017812 0.000000 0.000000 0.000000
# 3 -0.017812 -0.017812 0.034091 0.000000 0.000000 0.000000
# 4 0.000000 0.000000 0.000000 0.367833 0.000000 0.000000
# 5 0.000000 0.000000 0.000000 0.000000 0.367833 0.000000
# 6 0.000000 0.000000 0.000000 0.000000 0.000000 -0.007236
#
#
# Mechanical properties :
#
#
# Convention : Reuss Voigt Hill
#
# Bulk Modulus (GPa) = 43.47683 48.18409 45.83046
# Shear Modulus (GPa) = 5.11320 -23.12380 -9.00530
#
# Velocity S-wave (km/s) = 1.96938 -4.18805 -2.61355
# Velocity P-wave (km/s) = 6.17650 3.62795 5.06513
#
# Compressibility (1/GPa) = 0.02300076
#
# Stress axis : x y z
#
# Youngs Moduli (GPa) = 20.34786 20.34786 29.33286
#
# Poissons Ratio (x) = 0.38795 0.52249
# Poissons Ratio (y) = 0.38795 0.52249
# Poissons Ratio (z) = 0.36244 0.36244
#
# Static dielectric constant tensor:
#      x y z
#    x 1.408890 0.000000 0.000000 
#    y 0.000000 1.408890 0.000000 
#    z 0.000000 0.000000 1.477220 
# 
# From -- ./inp_files/1541.got.cif
#   From: 2010.05.17/outbox.cif.g08.bks.cpg/sg123_1_cif.got.tgz:1541.got - 2010.05.20 11:43:04.
