data_PCOD9561955
_publ_section_title
;
Structure prediction by ZEFSAII (Michael W. Deem and Ramdas Pophale) SiO2 
 PCOD9561955
Probable space group: P 4/M M M
;
_chemical_formula_sum "Si O2"
_cell_formula_units_Z 88
_cell_length_a 17.172637
_cell_length_b 17.172637
_cell_length_c 17.735714
_cell_angle_alpha 90.000000
_cell_angle_beta 90.000000
_cell_angle_gamma 90.000000
_cell_volume 5230.252509
_symmetry_space_group_name_H-M "P 4/M M M"
_symmetry_group_IT_number 123
_symmetry_cell_setting 'tetragonal'
loop_
_space_group_symop_operation_xyz
x,y,z
-y,x,z
-x,-y,z
y,-x,z
x,-y,-z
-x,y,-z
y,x,-z
-y,-x,-z
-x,-y,-z
y,-x,-z
x,y,-z
-y,x,-z
-x,y,z
x,-y,z
-y,-x,z
y,x,z
loop_
_atom_site_type_symbol
_atom_site_label
_atom_site_fract_x
_atom_site_fract_y
_atom_site_fract_z
Si Si1 0.279302 0.410144 0.230758
Si Si2 0.086828 0.206198 0.707459
Si Si3 0.088760 0.784414 0.111159
Si Si4 0.905783 0.594130 0.500000
Si Si5 0.799242 0.672320 0.628900
Si Si6 0.789573 0.655889 0.082360
O O1 0.301039 0.500000 0.233518
O O2 0.353797 0.353797 0.223731
O O3 0.236105 0.384597 0.307575
O O4 0.225871 0.394358 0.156863
O O5 0.121562 0.121562 0.689594
O O6 0.088288 0.214961 0.797703
O O7 0.144494 0.268523 0.672710
O O8 0.000000 0.216728 0.679318
O O9 0.143725 0.856276 0.087304
O O10 0.130771 0.704782 0.087603
O O11 0.000000 0.791205 0.085930
O O12 0.902718 0.500000 0.500000
O O13 0.855028 0.628328 0.569858
O O14 0.000000 0.614784 0.500000
O O15 0.727169 0.727169 0.598940
O O16 0.722226 0.722226 0.084081
O O17 0.784962 0.616550 0.000000
#
# Coordination Sequence:
#
# PCOD9561955 Si02
#       6
#    16  16  16   8  16  16
#     4  10  20  35  56  80 104 130 161 202 253 310
#     4   9  16  27  46  70  98 131 166 205 246 289
#     4   9  16  27  44  68  97 131 171 213 256 297
#     4  11  23  36  52  78 109 135 166 214 264 303
#     4  10  19  35  56  76 101 136 175 207 243 300
#     4   9  17  31  50  71  97 133 175 209 242 296
#
# _framework density 16.825192000000001
#
# number of rings (size 3 to 8) (size 9 to 14) (size 15 to 20)
#    0.000    2.455    1.818    1.364    0.000    1.273 
#    0.000    1.818    0.000    1.636    0.000    6.364 
#    0.000   13.091    0.000    0.000    0.000    0.000 
#
# Total GULP energy -490001.654223 kJ/mol
# GULP energy per Si atom -5568.200616 kJ/mol
# Density = 1.678690 g / cm^3
# Si number density = 16.825192 Si / 1000 Ang^3
#
#
#
# Elastic Constant Matrix: (Units=GPa)
#
#
# Indices 1 2 3 4 5 6 
#
# 1 86.4091 52.1836 50.4165 0.0000 0.0000 0.0000
# 2 52.1836 86.4091 50.4165 0.0000 0.0000 0.0000
# 3 50.4165 50.4165 96.8786 0.0000 0.0000 0.0000
# 4 0.0000 0.0000 0.0000 -3.3004 0.0000 0.0000
# 5 0.0000 0.0000 0.0000 0.0000 -3.3004 0.0000
# 6 0.0000 0.0000 0.0000 0.0000 0.0000 17.3149
#
#
#
# Elastic Compliance Matrix: (Units=1/GPa)
#
#
# Indices 1 2 3 4 5 6 
#
# 1 0.020415 -0.008803 -0.006043 0.000000 0.000000 0.000000
# 2 -0.008803 0.020415 -0.006043 0.000000 0.000000 0.000000
# 3 -0.006043 -0.006043 0.016612 0.000000 0.000000 0.000000
# 4 0.000000 0.000000 0.000000 -0.302998 0.000000 0.000000
# 5 0.000000 0.000000 0.000000 0.000000 -0.302998 0.000000
# 6 0.000000 0.000000 0.000000 0.000000 0.000000 0.057754
#
#
# Mechanical properties :
#
#
# Convention : Reuss Voigt Hill
#
# Bulk Modulus (GPa) = 63.84122 63.97000 63.90561
# Shear Modulus (GPa) = -11.26630 9.92153 -0.67239
#
# Velocity S-wave (km/s) = -2.59049 2.43097 -0.63285
# Velocity P-wave (km/s) = 5.39247 6.78103 6.12622
#
# Compressibility (1/GPa) = 0.01566386
#
# Stress axis : x y z
#
# Youngs Moduli (GPa) = 48.98374 48.98374 60.19811
#
# Poissons Ratio (x) = 0.43120 0.36377
# Poissons Ratio (y) = 0.43120 0.36377
# Poissons Ratio (z) = 0.29601 0.29601
#
# Static dielectric constant tensor:
#      x y z
#    x 1.553230 0.000000 0.000000 
#    y 0.000000 1.553230 0.000000 
#    z 0.000000 0.000000 1.606750 
# 
# From -- ./inp_files/4111.got.cif
#   From: 2010.05.17/outbox.cif.g08.bks.cpg/sg123_3_cif.got.tgz:4111.got - 2010.05.20 11:43:04.
