data_PCOD9561873
_publ_section_title
;
Structure prediction by ZEFSAII (Michael W. Deem and Ramdas Pophale) SiO2 
 PCOD9561873
Probable space group: P 4/M M M
;
_chemical_formula_sum "Si O2"
_cell_formula_units_Z 76
_cell_length_a 12.511502
_cell_length_b 12.511502
_cell_length_c 30.701369
_cell_angle_alpha 90.000000
_cell_angle_beta 90.000000
_cell_angle_gamma 90.000000
_cell_volume 4805.921147
_symmetry_space_group_name_H-M "P 4/M M M"
_symmetry_group_IT_number 123
_symmetry_cell_setting 'tetragonal'
loop_
_space_group_symop_operation_xyz
x,y,z
-y,x,z
-x,-y,z
y,-x,z
x,-y,-z
-x,y,-z
y,x,-z
-y,-x,-z
-x,-y,-z
y,-x,-z
x,y,-z
-y,x,-z
-x,y,z
x,-y,z
-y,-x,z
y,x,z
loop_
_atom_site_type_symbol
_atom_site_label
_atom_site_fract_x
_atom_site_fract_y
_atom_site_fract_z
Si Si1 0.814543 0.000000 0.500000
Si Si2 0.000000 0.624467 0.428451
Si Si3 0.620942 0.201529 0.178926
Si Si4 0.000000 0.623250 0.115210
Si Si5 0.698393 0.125974 0.272125
Si Si6 0.177007 0.000000 0.052043
Si Si7 0.797098 0.380105 0.634984
O O1 0.727945 0.000000 0.460204
O O2 0.895855 0.104146 0.500000
O O3 0.895934 0.632051 0.397850
O O4 0.000000 0.500000 0.446550
O O5 0.500000 0.240881 0.174121
O O6 0.706595 0.293406 0.170761
O O7 0.636949 0.103341 0.145980
O O8 0.637661 0.159561 0.228187
O O9 0.000000 0.500000 0.099066
O O10 0.000000 0.713178 0.078308
O O11 0.809656 0.190345 0.272007
O O12 0.637342 0.161106 0.315789
O O13 0.714364 0.000000 0.272514
O O14 0.103312 0.103312 0.062496
O O15 0.194579 0.000000 0.000000
O O16 0.754312 0.500000 0.630798
O O17 0.707582 0.292419 0.626043
#
# Coordination Sequence:
#
# PCOD9561873 Si02
#       7
#     4   8  16   8  16   8  16
#     4  11  23  38  56  78 107 133 154 196 250 293
#     4  10  20  36  58  78  99 129 168 201 235 291
#     4  10  20  32  48  70  97 131 167 203 243 284
#     4  10  19  31  50  72  97 126 160 203 243 286
#     4  10  19  32  49  70 100 134 169 206 241 283
#     4   9  18  33  52  72  96 126 156 192 243 298
#     4  10  20  33  52  76 101 132 166 203 244 285
#
# _framework density 15.813825
#
# number of rings (size 3 to 8) (size 9 to 14) (size 15 to 20)
#    0.000    2.053    2.105    2.368    0.000    1.684 
#    0.000    0.000    0.000    3.789    0.000    0.000 
#    0.000    7.579    0.000   19.579    0.000    0.000 
#
# Total GULP energy -423703.639280 kJ/mol
# GULP energy per Si atom -5575.047885 kJ/mol
# Density = 1.577783 g / cm^3
# Si number density = 15.813825 Si / 1000 Ang^3
#
#
#
# Elastic Constant Matrix: (Units=GPa)
#
#
# Indices 1 2 3 4 5 6 
#
# 1 112.4383 95.4546 53.0715 0.0000 0.0000 0.0000
# 2 95.4546 112.4382 53.0715 0.0000 0.0000 0.0000
# 3 53.0715 53.0715 76.3361 0.0000 0.0000 0.0000
# 4 0.0000 0.0000 0.0000 22.0475 0.0000 0.0000
# 5 0.0000 0.0000 0.0000 0.0000 22.0475 0.0000
# 6 0.0000 0.0000 0.0000 0.0000 0.0000 10.8757
#
#
#
# Elastic Compliance Matrix: (Units=1/GPa)
#
#
# Indices 1 2 3 4 5 6 
#
# 1 0.033169 -0.025712 -0.005184 0.000000 0.000000 0.000000
# 2 -0.025712 0.033169 -0.005185 0.000000 0.000000 0.000000
# 3 -0.005184 -0.005185 0.020309 0.000000 0.000000 0.000000
# 4 0.000000 0.000000 0.000000 0.045357 0.000000 0.000000
# 5 0.000000 0.000000 0.000000 0.000000 0.045357 0.000000
# 6 0.000000 0.000000 0.000000 0.000000 0.000000 0.091948
#
#
# Mechanical properties :
#
#
# Convention : Reuss Voigt Hill
#
# Bulk Modulus (GPa) = 69.03579 78.26755 73.65167
# Shear Modulus (GPa) = 14.43847 17.63513 16.03680
#
# Velocity S-wave (km/s) = 3.02491 3.34304 3.18795
# Velocity P-wave (km/s) = 7.47999 8.03130 7.76054
#
# Compressibility (1/GPa) = 0.01448524
#
# Stress axis : x y z
#
# Youngs Moduli (GPa) = 30.14891 30.14888 49.23960
#
# Poissons Ratio (x) = 0.77517 0.25528
# Poissons Ratio (y) = 0.77517 0.25528
# Poissons Ratio (z) = 0.15631 0.15631
#
# Static dielectric constant tensor:
#      x y z
#    x 1.509780 0.000000 0.000000 
#    y 0.000000 1.509780 0.000000 
#    z 0.000000 0.000000 1.520010 
# 
# From -- ./inp_files/8431.got.cif
#   From: 2010.05.17/outbox.cif.g08.bks.cpg/sg123_5_cif.got.tgz:8431.got - 2010.05.20 11:43:04.
