data_PCOD9561779
_publ_section_title
;
Structure prediction by ZEFSAII (Michael W. Deem and Ramdas Pophale) SiO2 
 PCOD9561779
Probable space group: P 4/M M M
;
_chemical_formula_sum "Si O2"
_cell_formula_units_Z 88
_cell_length_a 13.624240
_cell_length_b 13.624240
_cell_length_c 28.454608
_cell_angle_alpha 90.000000
_cell_angle_beta 90.000000
_cell_angle_gamma 90.000000
_cell_volume 5281.741935
_symmetry_space_group_name_H-M "P 4/M M M"
_symmetry_group_IT_number 123
_symmetry_cell_setting 'tetragonal'
loop_
_space_group_symop_operation_xyz
x,y,z
-y,x,z
-x,-y,z
y,-x,z
x,-y,-z
-x,y,-z
y,x,-z
-y,-x,-z
-x,-y,-z
y,-x,-z
x,y,-z
-y,x,-z
-x,y,z
x,-y,z
-y,-x,z
y,x,z
loop_
_atom_site_type_symbol
_atom_site_label
_atom_site_fract_x
_atom_site_fract_y
_atom_site_fract_z
Si Si1 0.116691 0.614619 0.905283
Si Si2 0.614774 0.224227 0.444602
Si Si3 0.721630 0.115662 0.363727
Si Si4 0.882979 0.723076 0.192024
Si Si5 0.779113 0.383667 0.722746
Si Si6 0.227724 0.617185 0.000000
O O1 0.141474 0.500000 0.896089
O O2 0.138501 0.678470 0.859413
O O3 0.171086 0.646907 0.952568
O O4 0.000000 0.619139 0.913623
O O5 0.623357 0.201046 0.500000
O O6 0.500000 0.234235 0.433147
O O7 0.674942 0.325059 0.436221
O O8 0.666431 0.143848 0.411987
O O9 0.823056 0.176945 0.362352
O O10 0.654800 0.158841 0.321814
O O11 0.735664 0.000000 0.358907
O O12 0.825382 0.825382 0.197601
O O13 0.838822 0.650149 0.231094
O O14 0.000000 0.732477 0.197483
O O15 0.765465 0.500000 0.721291
O O16 0.677266 0.322735 0.722545
O O17 0.232501 0.500000 0.000000
O O18 0.332897 0.667104 0.000000
#
# Coordination Sequence:
#
# PCOD9561779 Si02
#       6
#    16  16  16  16  16   8
#     4   9  17  30  49  71  92 117 154 199 244 287
#     4   9  18  32  50  74 103 133 166 204 246 294
#     4  10  21  36  53  74 100 130 166 207 248 291
#     4  10  20  33  50  73 100 130 164 201 241 286
#     4  10  21  36  54  77 103 130 162 199 240 288
#     4  10  19  30  45  65  92 124 155 191 234 281
#
# _framework density 16.661171
#
# number of rings (size 3 to 8) (size 9 to 14) (size 15 to 20)
#    0.000    2.364    0.000    2.455    0.000    5.545 
#    0.000    1.818    0.000    6.545    0.000    5.091 
#    0.000    6.545    0.000    0.000    0.000    0.000 
#
# Total GULP energy -490843.585017 kJ/mol
# GULP energy per Si atom -5577.768012 kJ/mol
# Density = 1.662325 g / cm^3
# Si number density = 16.661171 Si / 1000 Ang^3
#
#
#
# Elastic Constant Matrix: (Units=GPa)
#
#
# Indices 1 2 3 4 5 6 
#
# 1 111.0960 79.7931 56.9028 0.0000 0.0000 0.0000
# 2 79.7931 111.1006 56.9038 0.0000 0.0000 0.0000
# 3 56.9028 56.9038 84.9597 0.0000 0.0000 0.0000
# 4 0.0000 0.0000 0.0000 22.0337 0.0000 0.0000
# 5 0.0000 0.0000 0.0000 0.0000 22.0331 0.0000
# 6 0.0000 0.0000 0.0000 0.0000 0.0000 12.4970
#
#
#
# Elastic Compliance Matrix: (Units=1/GPa)
#
#
# Indices 1 2 3 4 5 6 
#
# 1 0.020333 -0.011611 -0.005841 0.000000 0.000000 0.000000
# 2 -0.011611 0.020332 -0.005841 0.000000 0.000000 0.000000
# 3 -0.005841 -0.005841 0.019594 0.000000 0.000000 0.000000
# 4 0.000000 0.000000 0.000000 0.045385 0.000000 0.000000
# 5 0.000000 0.000000 0.000000 0.000000 0.045386 0.000000
# 6 0.000000 0.000000 0.000000 0.000000 0.000000 0.080019
#
#
# Mechanical properties :
#
#
# Convention : Reuss Voigt Hill
#
# Bulk Modulus (GPa) = 73.14026 77.15064 75.14545
# Shear Modulus (GPa) = 17.71834 18.88319 18.30077
#
# Velocity S-wave (km/s) = 3.26460 3.37020 3.31782
# Velocity P-wave (km/s) = 7.62916 7.84541 7.73804
#
# Compressibility (1/GPa) = 0.01367236
#
# Stress axis : x y z
#
# Youngs Moduli (GPa) = 49.18186 49.18413 51.03484
#
# Poissons Ratio (x) = 0.57109 0.29810
# Poissons Ratio (y) = 0.57107 0.29809
# Poissons Ratio (z) = 0.28728 0.28728
#
# Static dielectric constant tensor:
#      x y z
#    x 1.534920 0.000000 0.000000 
#    y 0.000000 1.534920 0.000000 
#    z 0.000000 0.000000 1.569680 
# 
# From -- ./inp_files/8451.got.cif
#   From: 2010.05.17/outbox.cif.g08.bks.cpg/sg123_5_cif.got.tgz:8451.got - 2010.05.20 11:43:04.
