data_PCOD9561359
_publ_section_title
;
Structure prediction by ZEFSAII (Michael W. Deem and Ramdas Pophale) SiO2 
 PCOD9561359
Probable space group: I -4 2 D
;
_chemical_formula_sum "Si O2"
_cell_formula_units_Z 68
_cell_length_a 11.025509
_cell_length_b 11.025509
_cell_length_c 25.605331
_cell_angle_alpha 90.000000
_cell_angle_beta 90.000000
_cell_angle_gamma 90.000000
_cell_volume 3112.631373
_symmetry_space_group_name_H-M "I -4 2 D"
_symmetry_group_IT_number 122
_symmetry_cell_setting 'tetragonal'
loop_
_space_group_symop_operation_xyz
x,y,z
y,-x,-z
-x,-y,z
-y,x,-z
x,1/2-y,1/4-z
-x,1/2+y,1/4-z
-y,1/2-x,1/4+z
y,1/2+x,1/4+z
1/2+x,1/2+y,1/2+z
1/2+y,1/2-x,1/2-z
1/2-x,1/2-y,1/2+z
1/2-y,1/2+x,1/2-z
1/2+x,-y,3/4-z
1/2-x,y,3/4-z
1/2-y,-x,3/4+z
1/2+y,x,3/4+z
loop_
_atom_site_type_symbol
_atom_site_label
_atom_site_fract_x
_atom_site_fract_y
_atom_site_fract_z
Si Si1 0.290290 0.938965 0.088117
Si Si2 0.090634 0.750000 0.125000
Si Si3 0.000000 0.500000 0.750000
Si Si4 0.750000 0.506632 0.875000
Si Si5 0.185471 0.106751 0.567827
Si Si6 0.637533 0.049966 0.972317
O O1 0.176802 0.854662 0.101954
O O2 0.408825 0.859210 0.104446
O O3 0.282439 0.054857 0.125433
O O4 0.300310 0.974004 0.027890
O O5 0.012548 0.699578 0.077210
O O6 0.118263 0.499355 0.714163
O O7 0.794787 0.418802 0.828549
O O8 0.305687 0.142545 0.537782
O O9 0.500000 0.000000 0.974968
#
# Coordination Sequence:
#
# PCOD9561359 Si02
#       6
#    16   8   4   8  16  16
#     4  11  25  46  71 100 144 186 233 303 357 426
#     4  11  27  50  66 106 145 187 246 296 350 439
#     4  12  24  40  68 112 140 176 232 312 366 416
#     4  11  21  42  70 106 139 175 234 296 372 423
#     4  12  24  43  70 104 144 181 238 296 362 438
#     4  12  26  45  74 101 143 195 243 292 367 440
#
# _framework density 21.846467000000001
#
# number of rings (size 3 to 8) (size 9 to 14) (size 15 to 20)
#    0.000    0.471    4.706    3.529    3.294    5.647 
#    0.000    0.000    0.000    0.000    0.000    0.000 
#    0.000    0.000    0.000    0.000    0.000    0.000 
#
# Total GULP energy -190387.380613 kJ/mol
# GULP energy per Si atom -5599.628842 kJ/mol
# Density = 2.179674 g / cm^3
# Si number density = 21.846467 Si / 1000 Ang^3
#
#
#
# Elastic Constant Matrix: (Units=GPa)
#
#
# Indices 1 2 3 4 5 6 
#
# 1 52.7075 -19.1636 10.9002 0.0000 0.0000 0.0000
# 2 -19.1636 52.7075 10.9002 0.0000 0.0000 0.0000
# 3 10.9002 10.9002 166.5476 0.0000 0.0000 0.0000
# 4 0.0000 0.0000 0.0000 33.6764 0.0000 0.0000
# 5 0.0000 0.0000 0.0000 0.0000 33.6764 0.0000
# 6 0.0000 0.0000 0.0000 0.0000 0.0000 14.5517
#
#
#
# Elastic Compliance Matrix: (Units=1/GPa)
#
#
# Indices 1 2 3 4 5 6 
#
# 1 0.022525 0.008611 -0.002038 0.000000 0.000000 0.000000
# 2 0.008611 0.022525 -0.002038 0.000000 0.000000 0.000000
# 3 -0.002038 -0.002038 0.006271 0.000000 0.000000 0.000000
# 4 0.000000 0.000000 0.000000 0.029694 0.000000 0.000000
# 5 0.000000 0.000000 0.000000 0.000000 0.029694 0.000000
# 6 0.000000 0.000000 0.000000 0.000000 0.000000 0.068721
#
#
# Mechanical properties :
#
#
# Convention : Reuss Voigt Hill
#
# Bulk Modulus (GPa) = 16.55848 30.80400 23.68124
# Shear Modulus (GPa) = 26.24812 34.33594 30.29203
#
# Velocity S-wave (km/s) = 3.47000 3.96876 3.72773
# Velocity P-wave (km/s) = 4.86317 5.92725 5.42138
#
# Compressibility (1/GPa) = 0.06039203
#
# Stress axis : x y z
#
# Youngs Moduli (GPa) = 44.39523 44.39523 159.46348
#
# Poissons Ratio (x) = -0.38229 0.32495
# Poissons Ratio (y) = -0.38229 0.32495
# Poissons Ratio (z) = 0.09047 0.09047
#
# Static dielectric constant tensor:
#      x y z
#    x 1.845480 0.000000 0.000000 
#    y 0.000000 1.845480 0.000000 
#    z 0.000000 0.000000 1.787240 
# 
# From -- ./inp_files/8659.got.cif
#   From: 2010.05.17/outbox.cif.g08.bks.cpg/sg122_5_cif.got.tgz:8659.got - 2010.05.20 11:37:33.
