data_PCOD9561090
_publ_section_title
;
Structure prediction by ZEFSAII (Michael W. Deem and Ramdas Pophale) SiO2 
 PCOD9561090
Probable space group: I -4 2 D
;
_chemical_formula_sum "Si O2"
_cell_formula_units_Z 88
_cell_length_a 12.321150
_cell_length_b 12.321150
_cell_length_c 28.239109
_cell_angle_alpha 90.000000
_cell_angle_beta 90.000000
_cell_angle_gamma 90.000000
_cell_volume 4286.999959
_symmetry_space_group_name_H-M "I -4 2 D"
_symmetry_group_IT_number 122
_symmetry_cell_setting 'tetragonal'
loop_
_space_group_symop_operation_xyz
x,y,z
y,-x,-z
-x,-y,z
-y,x,-z
x,1/2-y,1/4-z
-x,1/2+y,1/4-z
-y,1/2-x,1/4+z
y,1/2+x,1/4+z
1/2+x,1/2+y,1/2+z
1/2+y,1/2-x,1/2-z
1/2-x,1/2-y,1/2+z
1/2-y,1/2+x,1/2-z
1/2+x,-y,3/4-z
1/2-x,y,3/4-z
1/2-y,-x,3/4+z
1/2+y,x,3/4+z
loop_
_atom_site_type_symbol
_atom_site_label
_atom_site_fract_x
_atom_site_fract_y
_atom_site_fract_z
Si Si1 0.402910 0.909134 0.817732
Si Si2 0.440821 0.698840 0.333932
Si Si3 0.096070 0.845490 0.497254
Si Si4 0.265865 0.452883 0.262637
Si Si5 0.755374 0.316243 0.672456
Si Si6 0.500000 0.000000 0.984512
O O1 0.392814 0.849998 0.868207
O O2 0.436570 0.821242 0.778506
O O3 0.500000 0.000000 0.820860
O O4 0.291453 0.962508 0.798742
O O5 0.375023 0.782254 0.300853
O O6 0.557800 0.753920 0.343150
O O7 0.471990 0.600128 0.299494
O O8 0.143119 0.790178 0.543996
O O9 0.966600 0.855502 0.502063
O O10 0.287253 0.346873 0.294423
O O11 0.384144 0.480794 0.240946
O O12 0.751047 0.250000 0.625000
#
# Coordination Sequence:
#
# PCOD9561090 Si02
#       6
#    16  16  16  16  16   8
#     4  12  22  40  66 100 134 176 225 276 347 413
#     4  10  22  39  62  94 125 165 222 270 337 404
#     4   9  20  43  67  91 126 170 222 275 333 402
#     4  11  24  40  61  96 133 176 221 277 336 413
#     4  10  22  39  64  91 127 171 216 268 341 401
#     4  10  24  40  58  87 132 174 215 276 336 386
#
# _framework density 20.527176000000001
#
# number of rings (size 3 to 8) (size 9 to 14) (size 15 to 20)
#    0.000    1.636    2.727    1.091    5.091    0.000 
#    0.000    9.091    0.000    0.000    0.000    0.000 
#    0.000    0.000    0.000    0.000    0.000    0.000 
#
# Total GULP energy -245649.292004 kJ/mol
# GULP energy per Si atom -5582.938455 kJ/mol
# Density = 2.048045 g / cm^3
# Si number density = 20.527176 Si / 1000 Ang^3
#
#
#
# Elastic Constant Matrix: (Units=GPa)
#
#
# Indices 1 2 3 4 5 6 
#
# 1 65.7719 20.4570 23.4677 0.0000 0.0000 0.0000
# 2 20.4570 65.7719 23.4677 0.0000 0.0000 0.0000
# 3 23.4677 23.4677 60.6601 0.0000 0.0000 0.0000
# 4 0.0000 0.0000 0.0000 19.7530 0.0000 0.0000
# 5 0.0000 0.0000 0.0000 0.0000 19.7530 0.0000
# 6 0.0000 0.0000 0.0000 0.0000 0.0000 20.9562
#
#
#
# Elastic Compliance Matrix: (Units=1/GPa)
#
#
# Indices 1 2 3 4 5 6 
#
# 1 0.018379 -0.003689 -0.005683 0.000000 0.000000 0.000000
# 2 -0.003689 0.018379 -0.005683 0.000000 0.000000 0.000000
# 3 -0.005683 -0.005683 0.020883 0.000000 0.000000 0.000000
# 4 0.000000 0.000000 0.000000 0.050625 0.000000 0.000000
# 5 0.000000 0.000000 0.000000 0.000000 0.050625 0.000000
# 6 0.000000 0.000000 0.000000 0.000000 0.000000 0.047719
#
#
# Mechanical properties :
#
#
# Convention : Reuss Voigt Hill
#
# Bulk Modulus (GPa) = 36.32344 36.33207 36.32775
# Shear Modulus (GPa) = 20.33367 20.41321 20.37344
#
# Velocity S-wave (km/s) = 3.15075 3.15691 3.15383
# Velocity P-wave (km/s) = 5.56507 5.57010 5.56759
#
# Compressibility (1/GPa) = 0.02753043
#
# Stress axis : x y z
#
# Youngs Moduli (GPa) = 54.40943 54.40943 47.88640
#
# Poissons Ratio (x) = 0.20070 0.27216
# Poissons Ratio (y) = 0.20070 0.27216
# Poissons Ratio (z) = 0.30923 0.30923
#
# Static dielectric constant tensor:
#      x y z
#    x 1.746680 0.000000 0.000000 
#    y 0.000000 1.746680 0.000000 
#    z 0.000000 0.000000 1.691180 
# 
# From -- ./inp_files/9486.got.cif
#   From: 2010.05.17/outbox.cif.g08.bks.cpg/sg122_5_cif.got.tgz:9486.got - 2010.05.20 11:37:33.
