data_PCOD9562511
_publ_section_title
;
Structure prediction by ZEFSAII (Michael W. Deem and Ramdas Pophale) SiO2 
 PCOD9562511
Probable space group: P 4/M C C
;
_chemical_formula_sum "Si O2"
_cell_formula_units_Z 96
_cell_length_a 16.450080
_cell_length_b 16.450080
_cell_length_c 22.823687
_cell_angle_alpha 90.000000
_cell_angle_beta 90.000000
_cell_angle_gamma 90.000000
_cell_volume 6176.206834
_symmetry_space_group_name_H-M "P 4/M C C"
_symmetry_group_IT_number 124
_symmetry_cell_setting 'tetragonal'
loop_
_space_group_symop_operation_xyz
x,y,z
-y,x,z
-x,-y,z
y,-x,z
x,-y,1/2-z
-x,y,1/2-z
y,x,1/2-z
-y,-x,1/2-z
-x,-y,-z
y,-x,-z
x,y,-z
-y,x,-z
-x,y,1/2+z
x,-y,1/2+z
-y,-x,1/2+z
y,x,1/2+z
loop_
_atom_site_type_symbol
_atom_site_label
_atom_site_fract_x
_atom_site_fract_y
_atom_site_fract_z
Si Si1 0.703534 0.690509 0.931129
Si Si2 0.581474 0.810413 0.137472
Si Si3 0.597747 0.988531 0.182790
Si Si4 0.567260 0.616502 0.356529
Si Si5 0.605895 0.846464 0.368896
Si Si6 0.378156 0.257831 0.740566
O O1 0.646262 0.760515 0.902057
O O2 0.660241 0.606068 0.912331
O O3 0.792735 0.672249 0.903564
O O4 0.707904 0.702218 0.000000
O O5 0.488588 0.824064 0.114025
O O6 0.578673 0.760449 0.198623
O O7 0.613265 0.899154 0.156918
O O8 0.622853 0.058057 0.136219
O O9 0.500000 0.000000 0.186454
O O10 0.628387 0.000000 0.250000
O O11 0.472062 0.605561 0.356922
O O12 0.590130 0.667861 0.299269
O O13 0.611594 0.818449 0.301249
O O14 0.284596 0.284596 0.750000
#
# Coordination Sequence:
#
# PCOD9562511 Si02
#       6
#    16  16  16  16  16  16
#     4  11  23  36  49  64  90 133 178 217 247 281
#     4  11  20  32  51  72 100 129 163 207 256 308
#     4   9  17  30  50  78 102 124 151 197 261 324
#     4  10  22  33  43  62  91 129 173 218 255 286
#     4  10  20  32  50  73 100 127 164 203 253 305
#     4  11  19  26  46  71  97 123 154 203 254 302
#
# _framework density 15.543521
#
# number of rings (size 3 to 8) (size 9 to 14) (size 15 to 20)
#    0.000    1.667    5.000    2.500    2.333    2.667 
#    0.000    2.500    0.000    3.000    0.000    0.000 
#    0.000    0.667    0.000    4.833    0.000    0.333 
#
# Total GULP energy -534522.010225 kJ/mol
# GULP energy per Si atom -5567.937607 kJ/mol
# Density = 1.550814 g / cm^3
# Si number density = 15.543521 Si / 1000 Ang^3
#
#
#
# Elastic Constant Matrix: (Units=GPa)
#
#
# Indices 1 2 3 4 5 6 
#
# 1 80.9193 34.8641 27.7566 0.0000 0.0000 0.0000
# 2 34.8641 80.9193 27.7566 0.0000 0.0000 0.0000
# 3 27.7566 27.7566 89.2101 0.0000 0.0000 0.0000
# 4 0.0000 0.0000 0.0000 4.7138 0.0000 0.0000
# 5 0.0000 0.0000 0.0000 0.0000 4.7138 0.0000
# 6 0.0000 0.0000 0.0000 0.0000 0.0000 10.5615
#
#
#
# Elastic Compliance Matrix: (Units=1/GPa)
#
#
# Indices 1 2 3 4 5 6 
#
# 1 0.015932 -0.005781 -0.003158 0.000000 0.000000 0.000000
# 2 -0.005781 0.015932 -0.003158 0.000000 0.000000 0.000000
# 3 -0.003158 -0.003158 0.013175 0.000000 0.000000 0.000000
# 4 0.000000 0.000000 0.000000 0.212144 0.000000 0.000000
# 5 0.000000 0.000000 0.000000 0.000000 0.212144 0.000000
# 6 0.000000 0.000000 0.000000 0.000000 0.000000 0.094683
#
#
# Mechanical properties :
#
#
# Convention : Reuss Voigt Hill
#
# Bulk Modulus (GPa) = 47.97644 47.97814 47.97729
# Shear Modulus (GPa) = 8.40121 14.70926 11.55523
#
# Velocity S-wave (km/s) = 2.32738 3.07958 2.72952
# Velocity P-wave (km/s) = 6.17698 6.60144 6.39274
#
# Compressibility (1/GPa) = 0.02084356
#
# Stress axis : x y z
#
# Youngs Moduli (GPa) = 62.76637 62.76637 75.90199
#
# Poissons Ratio (x) = 0.36285 0.23973
# Poissons Ratio (y) = 0.36285 0.23973
# Poissons Ratio (z) = 0.19824 0.19824
#
# Static dielectric constant tensor:
#      x y z
#    x 1.580730 0.000000 0.000000 
#    y 0.000000 1.580730 0.000000 
#    z 0.000000 0.000000 1.523090 
# 
# From -- ./inp_files/5471.got.cif
#   From: 2010.05.17/outbox.cif.g08.bks.cpg/sg124_3_cif.got.tgz:5471.got - 2010.05.20 11:49:17.
