data_PCOD9562547
_publ_section_title
;
Structure prediction by ZEFSAII (Michael W. Deem and Ramdas Pophale) SiO2 
 PCOD9562547
Probable space group: P 4/M C C
;
_chemical_formula_sum "Si O2"
_cell_formula_units_Z 88
_cell_length_a 15.415110
_cell_length_b 15.415110
_cell_length_c 22.301501
_cell_angle_alpha 90.000000
_cell_angle_beta 90.000000
_cell_angle_gamma 90.000000
_cell_volume 5299.407920
_symmetry_space_group_name_H-M "P 4/M C C"
_symmetry_group_IT_number 124
_symmetry_cell_setting 'tetragonal'
loop_
_space_group_symop_operation_xyz
x,y,z
-y,x,z
-x,-y,z
y,-x,z
x,-y,1/2-z
-x,y,1/2-z
y,x,1/2-z
-y,-x,1/2-z
-x,-y,-z
y,-x,-z
x,y,-z
-y,x,-z
-x,y,1/2+z
x,-y,1/2+z
-y,-x,1/2+z
y,x,1/2+z
loop_
_atom_site_type_symbol
_atom_site_label
_atom_site_fract_x
_atom_site_fract_y
_atom_site_fract_z
Si Si1 0.840619 0.393413 0.811499
Si Si2 0.202040 0.181179 0.500000
Si Si3 0.815052 0.596251 0.175279
Si Si4 0.994547 0.399744 0.390140
Si Si5 0.696777 0.711457 0.098856
Si Si6 0.418596 0.622192 0.500000
Si Si7 0.015171 0.269027 0.500000
O O1 0.809731 0.492773 0.818443
O O2 0.828162 0.367803 0.742459
O O3 0.785706 0.337098 0.857404
O O4 0.939290 0.392066 0.834489
O O5 0.248594 0.228251 0.443535
O O6 0.219947 0.077993 0.500000
O O7 0.100282 0.207855 0.500000
O O8 0.899026 0.615827 0.135044
O O9 0.734486 0.636181 0.140733
O O10 0.017675 0.332350 0.442151
O O11 0.000000 0.500000 0.411990
O O12 0.620918 0.673197 0.056854
O O13 0.383325 0.522923 0.500000
#
# Coordination Sequence:
#
# PCOD9562547 Si02
#       7
#    16   8  16  16  16   8   8
#     4  10  20  34  54  81 112 144 178 219 268 323
#     4  11  24  36  60  76 108 135 182 230 268 327
#     4  10  20  34  54  81 112 144 178 219 268 323
#     4  10  20  34  56  82 115 141 170 219 276 329
#     4  11  20  36  54  81 104 145 182 231 266 319
#     4  10  22  37  52  73 108 150 190 232 276 320
#     4  12  21  41  54  84 106 142 184 219 279 322
#
# _framework density 16.605629
#
# number of rings (size 3 to 8) (size 9 to 14) (size 15 to 20)
#    0.000    1.545    3.636    2.455    0.000    2.364 
#    0.000    0.000    0.000    0.000    0.000    7.636 
#    0.000    2.909    0.000    0.000    0.000    0.000 
#
# Total GULP energy -491003.734839 kJ/mol
# GULP energy per Si atom -5579.587896 kJ/mol
# Density = 1.656783 g / cm^3
# Si number density = 16.605629 Si / 1000 Ang^3
#
#
#
# Elastic Constant Matrix: (Units=GPa)
#
#
# Indices 1 2 3 4 5 6 
#
# 1 42.8696 8.1314 12.9541 0.0000 0.0000 0.0000
# 2 8.1314 42.8696 12.9541 0.0000 0.0000 0.0000
# 3 12.9541 12.9541 81.2019 0.0000 0.0000 0.0000
# 4 0.0000 0.0000 0.0000 -7.4992 0.0000 0.0000
# 5 0.0000 0.0000 0.0000 0.0000 -7.4992 0.0000
# 6 0.0000 0.0000 0.0000 0.0000 0.0000 29.0076
#
#
#
# Elastic Compliance Matrix: (Units=1/GPa)
#
#
# Indices 1 2 3 4 5 6 
#
# 1 0.025062 -0.003725 -0.003404 0.000000 0.000000 0.000000
# 2 -0.003725 0.025062 -0.003404 0.000000 0.000000 0.000000
# 3 -0.003404 -0.003404 0.013401 0.000000 0.000000 0.000000
# 4 0.000000 0.000000 0.000000 -0.133348 0.000000 0.000000
# 5 0.000000 0.000000 0.000000 0.000000 -0.133348 0.000000
# 6 0.000000 0.000000 0.000000 0.000000 0.000000 0.034474
#
#
# Mechanical properties :
#
#
# Convention : Reuss Voigt Hill
#
# Bulk Modulus (GPa) = 23.55220 26.11337 24.83278
# Shear Modulus (GPa) = -37.45879 11.66197 -12.89841
#
# Velocity S-wave (km/s) = -4.75467 2.65295 -2.79005
# Velocity P-wave (km/s) = 3.99104 5.01437 2.14657
#
# Compressibility (1/GPa) = 0.04245888
#
# Stress axis : x y z
#
# Youngs Moduli (GPa) = 39.90163 39.90163 74.62130
#
# Poissons Ratio (x) = 0.14864 0.25400
# Poissons Ratio (y) = 0.14864 0.25400
# Poissons Ratio (z) = 0.13582 0.13582
#
# Static dielectric constant tensor:
#      x y z
#    x 1.555990 0.000000 0.000000 
#    y 0.000000 1.555990 0.000000 
#    z 0.000000 0.000000 1.551570 
# 
# From -- ./inp_files/5250.got.cif
#   From: 2010.05.17/outbox.cif.g08.bks.cpg/sg124_3_cif.got.tgz:5250.got - 2010.05.20 11:49:17.
