data_PCOD9562764
_publ_section_title
;
Structure prediction by ZEFSAII (Michael W. Deem and Ramdas Pophale) SiO2 
 PCOD9562764
Probable space group: P 4/M C C
;
_chemical_formula_sum "Si O2"
_cell_formula_units_Z 96
_cell_length_a 23.921354
_cell_length_b 23.921354
_cell_length_c 8.942334
_cell_angle_alpha 90.000000
_cell_angle_beta 90.000000
_cell_angle_gamma 90.000000
_cell_volume 5117.082312
_symmetry_space_group_name_H-M "P 4/M C C"
_symmetry_group_IT_number 124
_symmetry_cell_setting 'tetragonal'
loop_
_space_group_symop_operation_xyz
x,y,z
-y,x,z
-x,-y,z
y,-x,z
x,-y,1/2-z
-x,y,1/2-z
y,x,1/2-z
-y,-x,1/2-z
-x,-y,-z
y,-x,-z
x,y,-z
-y,x,-z
-x,y,1/2+z
x,-y,1/2+z
-y,-x,1/2+z
y,x,1/2+z
loop_
_atom_site_type_symbol
_atom_site_label
_atom_site_fract_x
_atom_site_fract_y
_atom_site_fract_z
Si Si1 0.750482 0.330467 0.825464
Si Si2 0.556372 0.208607 0.179882
Si Si3 0.556560 0.084879 0.321038
Si Si4 0.257943 0.862197 0.333295
Si Si5 0.128578 0.128578 0.250000
Si Si6 0.081730 0.050741 0.500000
Si Si7 0.328395 0.051869 0.326352
O O1 0.697442 0.302559 0.750000
O O2 0.764562 0.385914 0.732901
O O3 0.799979 0.283611 0.821619
O O4 0.742955 0.344592 0.000000
O O5 0.500000 0.235136 0.250000
O O6 0.559072 0.147463 0.255431
O O7 0.552396 0.204610 0.000000
O O8 0.500000 0.060563 0.250000
O O9 0.553632 0.084464 0.500000
O O10 0.613701 0.058660 0.262563
O O11 0.274810 0.882588 0.500000
O O12 0.191462 0.871388 0.317944
O O13 0.289892 0.895289 0.204723
O O14 0.116518 0.077790 0.363886
O O15 0.016968 0.074568 0.500000
O O16 0.339414 0.043866 0.500000
O O17 0.297739 0.000000 0.250000
#
# Coordination Sequence:
#
# PCOD9562764 Si02
#       7
#    16  16  16  16   8   8  16
#     4  11  22  37  61  89 127 168 211 262 312 370
#     4  11  21  36  59  88 121 164 214 261 314 369
#     4  11  21  37  59  84 115 155 207 256 306 360
#     4  11  24  42  62  90 124 158 200 244 301 378
#     4  12  24  45  72  94 126 158 196 246 313 382
#     4  11  26  48  72  98 122 154 200 258 320 394
#     4  12  26  42  61  84 117 155 198 251 308 364
#
# _framework density 18.760691000000001
#
# number of rings (size 3 to 8) (size 9 to 14) (size 15 to 20)
#    0.000    0.750    3.333    6.500    1.167    3.000 
#    0.000    1.667    0.000    0.000    0.000    0.000 
#    0.000    0.333    0.000    3.333    0.000    2.000 
#
# Total GULP energy -535782.455438 kJ/mol
# GULP energy per Si atom -5581.067244 kJ/mol
# Density = 1.871799 g / cm^3
# Si number density = 18.760691 Si / 1000 Ang^3
#
#
#
# Elastic Constant Matrix: (Units=GPa)
#
#
# Indices 1 2 3 4 5 6 
#
# 1 81.5756 31.7078 32.3468 0.0000 0.0000 0.0000
# 2 31.7078 81.5748 32.3412 0.0000 0.0000 0.0000
# 3 32.3468 32.3412 172.9800 0.0000 0.0000 0.0000
# 4 0.0000 0.0000 0.0000 26.2213 0.0000 0.0000
# 5 0.0000 0.0000 0.0000 0.0000 26.2219 0.0000
# 6 0.0000 0.0000 0.0000 0.0000 0.0000 7.8822
#
#
#
# Elastic Compliance Matrix: (Units=1/GPa)
#
#
# Indices 1 2 3 4 5 6 
#
# 1 0.014968 -0.005085 -0.001848 0.000000 0.000000 0.000000
# 2 -0.005085 0.014968 -0.001848 0.000000 0.000000 0.000000
# 3 -0.001848 -0.001848 0.006472 0.000000 0.000000 0.000000
# 4 0.000000 0.000000 0.000000 0.038137 0.000000 0.000000
# 5 0.000000 0.000000 0.000000 0.000000 0.038136 0.000000
# 6 0.000000 0.000000 0.000000 0.000000 0.000000 0.126869
#
#
# Mechanical properties :
#
#
# Convention : Reuss Voigt Hill
#
# Bulk Modulus (GPa) = 53.06205 58.76910 55.91558
# Shear Modulus (GPa) = 18.98302 28.04739 23.51520
#
# Velocity S-wave (km/s) = 3.18441 3.87073 3.54422
# Velocity P-wave (km/s) = 6.47037 7.16731 6.82774
#
# Compressibility (1/GPa) = 0.01884586
#
# Stress axis : x y z
#
# Youngs Moduli (GPa) = 66.80904 66.81024 154.51057
#
# Poissons Ratio (x) = 0.33975 0.28557
# Poissons Ratio (y) = 0.33974 0.28546
# Poissons Ratio (z) = 0.12348 0.12343
#
# Static dielectric constant tensor:
#      x y z
#    x 1.556990 0.000000 0.000000 
#    y 0.000000 1.557000 0.000000 
#    z 0.000000 0.000000 1.682170 
# 
# From -- ./inp_files/1429.got.cif
#   From: 2010.05.17/outbox.cif.g08.bks.cpg/sg124_1_cif.got.tgz:1429.got - 2010.05.20 11:49:17.
