data_PCOD9562923
_publ_section_title
;
Structure prediction by ZEFSAII (Michael W. Deem and Ramdas Pophale) SiO2 
 PCOD9562923
Probable space group: P 4/N B M
;
_chemical_formula_sum "Si O2"
_cell_formula_units_Z 88
_cell_length_a 15.203548
_cell_length_b 15.203548
_cell_length_c 21.397433
_cell_angle_alpha 90.000000
_cell_angle_beta 90.000000
_cell_angle_gamma 90.000000
_cell_volume 4945.971100
_symmetry_space_group_name_H-M "P 4/N B M"
_symmetry_group_IT_number 125
_space_group.IT_coordinate_system_code '2'
_symmetry_cell_setting 'tetragonal'
loop_
_space_group_symop_operation_xyz
x,y,z
1/2-y,x,z
1/2-x,1/2-y,z
y,1/2-x,z
x,1/2-y,-z
1/2-x,y,-z
y,x,-z
1/2-y,1/2-x,-z
-x,-y,-z
1/2+y,-x,-z
1/2+x,1/2+y,-z
-y,1/2+x,-z
-x,1/2+y,z
1/2+x,-y,z
-y,-x,z
1/2+y,1/2+x,z
loop_
_atom_site_type_symbol
_atom_site_label
_atom_site_fract_x
_atom_site_fract_y
_atom_site_fract_z
Si Si1 0.860519 0.848732 0.928582
Si Si2 0.463347 0.814387 0.372553
Si Si3 0.870121 0.665324 0.308270
Si Si4 0.755267 0.104802 0.756753
Si Si5 0.250000 0.898500 0.500000
Si Si6 0.978267 0.625840 0.186547
O O1 0.757054 0.868628 0.920104
O O2 0.926409 0.886862 0.877652
O O3 0.877391 0.877391 0.000000
O O4 0.389827 0.889827 0.373090
O O5 0.557714 0.858305 0.360070
O O6 0.438635 0.754603 0.311989
O O7 0.454565 0.763572 0.437437
O O8 0.866482 0.771129 0.312941
O O9 0.908597 0.632550 0.242522
O O10 0.849731 0.150270 0.767276
O O11 0.684014 0.184014 0.757493
O O12 0.716855 0.034564 0.806331
O O13 0.333579 0.833579 0.507832
O O14 0.047318 0.547318 0.197266
#
# Coordination Sequence:
#
# PCOD9562923 Si02
#       6
#    16  16  16  16   8  16
#     4   9  18  34  54  72  95 132 173 205 237 287
#     4   9  17  31  50  73 101 129 167 218 259 300
#     4  10  20  35  53  70  94 131 170 206 252 309
#     4   8  14  26  44  67  98 133 162 194 245 303
#     4   9  16  28  50  77 104 138 174 207 254 314
#     4  10  19  31  50  77 105 127 157 208 257 298
#
# _framework density 17.792259000000001
#
# number of rings (size 3 to 8) (size 9 to 14) (size 15 to 20)
#    0.000    2.818    0.000    3.818    0.000    4.000 
#    0.000   14.545    0.000    4.364    0.000    0.000 
#    0.000    0.000    0.000    0.000    0.000    0.000 
#
# Total GULP energy -490068.131152 kJ/mol
# GULP energy per Si atom -5568.956036 kJ/mol
# Density = 1.775176 g / cm^3
# Si number density = 17.792259 Si / 1000 Ang^3
#
#
#
# Elastic Constant Matrix: (Units=GPa)
#
#
# Indices 1 2 3 4 5 6 
#
# 1 50.0382 -7.3678 24.8751 0.0000 0.0000 0.0000
# 2 -7.3678 50.0382 24.8751 0.0000 0.0000 0.0000
# 3 24.8751 24.8751 90.9706 0.0000 0.0000 0.0000
# 4 0.0000 0.0000 0.0000 24.4024 0.0000 0.0000
# 5 0.0000 0.0000 0.0000 0.0000 24.4024 0.0000
# 6 0.0000 0.0000 0.0000 0.0000 0.0000 7.6696
#
#
#
# Elastic Compliance Matrix: (Units=1/GPa)
#
#
# Indices 1 2 3 4 5 6 
#
# 1 0.025912 0.008492 -0.009407 0.000000 0.000000 0.000000
# 2 0.008492 0.025912 -0.009407 0.000000 0.000000 0.000000
# 3 -0.009407 -0.009407 0.016137 0.000000 0.000000 0.000000
# 4 0.000000 0.000000 0.000000 0.040980 0.000000 0.000000
# 5 0.000000 0.000000 0.000000 0.000000 0.040980 0.000000
# 6 0.000000 0.000000 0.000000 0.000000 0.000000 0.130385
#
#
# Mechanical properties :
#
#
# Convention : Reuss Voigt Hill
#
# Bulk Modulus (GPa) = 21.13484 30.64575 25.89029
# Shear Modulus (GPa) = 15.78669 21.20585 18.49627
#
# Velocity S-wave (km/s) = 2.98195 3.45608 3.22773
# Velocity P-wave (km/s) = 4.87448 5.76086 5.33611
#
# Compressibility (1/GPa) = 0.04731524
#
# Stress axis : x y z
#
# Youngs Moduli (GPa) = 38.59246 38.59246 61.96814
#
# Poissons Ratio (x) = -0.32773 0.58296
# Poissons Ratio (y) = -0.32773 0.58296
# Poissons Ratio (z) = 0.36306 0.36306
#
# Static dielectric constant tensor:
#      x y z
#    x 1.641340 0.000000 0.000000 
#    y 0.000000 1.641340 0.000000 
#    z 0.000000 0.000000 1.599150 
# 
# From -- ./inp_files/5850.got.cif
#   From: 2010.05.17/outbox.cif.g08.bks.cpg/sg125_3_cif.got.tgz:5850.got - 2010.05.20 11:54:10.
