data_PCOD9562725
_publ_section_title
;
Structure prediction by ZEFSAII (Michael W. Deem and Ramdas Pophale) SiO2 
 PCOD9562725
Probable space group: P 4/M C C
;
_chemical_formula_sum "Si O2"
_cell_formula_units_Z 80
_cell_length_a 12.169217
_cell_length_b 12.169217
_cell_length_c 25.187880
_cell_angle_alpha 90.000000
_cell_angle_beta 90.000000
_cell_angle_gamma 90.000000
_cell_volume 3730.069179
_symmetry_space_group_name_H-M "P 4/M C C"
_symmetry_group_IT_number 124
_symmetry_cell_setting 'tetragonal'
loop_
_space_group_symop_operation_xyz
x,y,z
-y,x,z
-x,-y,z
y,-x,z
x,-y,1/2-z
-x,y,1/2-z
y,x,1/2-z
-y,-x,1/2-z
-x,-y,-z
y,-x,-z
x,y,-z
-y,x,-z
-x,y,1/2+z
x,-y,1/2+z
-y,-x,1/2+z
y,x,1/2+z
loop_
_atom_site_type_symbol
_atom_site_label
_atom_site_fract_x
_atom_site_fract_y
_atom_site_fract_z
Si Si1 0.676818 0.505827 0.813683
Si Si2 0.908888 0.414740 0.654171
Si Si3 0.939614 0.168104 0.338050
Si Si4 0.138999 0.722629 0.436905
Si Si5 0.626604 0.629195 0.435965
O O1 0.603284 0.611021 0.829220
O O2 0.679525 0.500000 0.750000
O O3 0.796970 0.524700 0.833596
O O4 0.912801 0.292559 0.680541
O O5 0.915153 0.384279 0.591361
O O6 0.000000 0.500000 0.670994
O O7 0.916085 0.181539 0.401762
O O8 0.064156 0.135796 0.322856
O O9 0.125723 0.730179 0.500000
O O10 0.268876 0.706838 0.422137
O O11 0.497981 0.652646 0.422422
O O12 0.629156 0.630466 0.500000
#
# Coordination Sequence:
#
# PCOD9562725 Si02
#       5
#    16  16  16  16  16
#     4   9  20  40  67  96 123 151 186 235 295 362
#     4  10  23  36  60  87 121 155 199 245 301 355
#     4   9  21  40  58  79 114 164 213 257 296 342
#     4   9  20  34  51  78 112 154 204 256 296 344
#     4   8  14  26  43  65  98 139 180 227 290 354
#
# _framework density 21.447322
#
# number of rings (size 3 to 8) (size 9 to 14) (size 15 to 20)
#    1.200    1.800    0.000    1.200    2.800    4.800 
#    0.000    3.000    0.000    0.000    0.000    0.000 
#    0.000    0.000    0.000    0.000    0.000    0.000 
#
# Total GULP energy -445378.758777 kJ/mol
# GULP energy per Si atom -5567.234485 kJ/mol
# Density = 2.139851 g / cm^3
# Si number density = 21.447322 Si / 1000 Ang^3
#
#
#
# Elastic Constant Matrix: (Units=GPa)
#
#
# Indices 1 2 3 4 5 6 
#
# 1 104.3840 68.2915 -2.6311 0.0000 0.0000 0.0000
# 2 68.2915 104.3840 -2.6311 0.0000 0.0000 0.0000
# 3 -2.6311 -2.6311 7.6055 0.0000 0.0000 0.0000
# 4 0.0000 0.0000 0.0000 5.7142 0.0000 0.0000
# 5 0.0000 0.0000 0.0000 0.0000 5.7142 0.0000
# 6 0.0000 0.0000 0.0000 0.0000 0.0000 18.9522
#
#
#
# Elastic Compliance Matrix: (Units=1/GPa)
#
#
# Indices 1 2 3 4 5 6 
#
# 1 0.016780 -0.010927 0.002025 0.000000 0.000000 0.000000
# 2 -0.010927 0.016780 0.002025 0.000000 0.000000 0.000000
# 3 0.002025 0.002025 0.132885 0.000000 0.000000 0.000000
# 4 0.000000 0.000000 0.000000 0.175002 0.000000 0.000000
# 5 0.000000 0.000000 0.000000 0.000000 0.175002 0.000000
# 6 0.000000 0.000000 0.000000 0.000000 0.000000 0.052764
#
#
# Mechanical properties :
#
#
# Convention : Reuss Voigt Hill
#
# Bulk Modulus (GPa) = 6.54922 38.04801 22.29861
# Shear Modulus (GPa) = 7.88814 16.29909 12.09362
#
# Velocity S-wave (km/s) = 1.91987 2.75973 2.37718
# Velocity P-wave (km/s) = 2.82397 5.28522 4.23723
#
# Compressibility (1/GPa) = 0.15269001
#
# Stress axis : x y z
#
# Youngs Moduli (GPa) = 59.59561 59.59561 7.52531
#
# Poissons Ratio (x) = 0.65119 -0.01524
# Poissons Ratio (y) = 0.65119 -0.01524
# Poissons Ratio (z) = -0.12067 -0.12067
#
# Static dielectric constant tensor:
#      x y z
#    x 1.753670 0.000000 0.000000 
#    y 0.000000 1.753670 0.000000 
#    z 0.000000 0.000000 1.898050 
# 
# From -- ./inp_files/6953.got.cif
#   From: 2010.05.17/outbox.cif.g08.bks.cpg/sg124_4_cif.got.tgz:6953.got - 2010.05.20 11:49:17.
