data_PCOD9562855
_publ_section_title
;
Structure prediction by ZEFSAII (Michael W. Deem and Ramdas Pophale) SiO2 
 PCOD9562855
Probable space group: P 4/M C C
;
_chemical_formula_sum "Si O2"
_cell_formula_units_Z 80
_cell_length_a 16.372419
_cell_length_b 16.372419
_cell_length_c 14.527656
_cell_angle_alpha 90.000000
_cell_angle_beta 90.000000
_cell_angle_gamma 90.000000
_cell_volume 3894.226866
_symmetry_space_group_name_H-M "P 4/M C C"
_symmetry_group_IT_number 124
_symmetry_cell_setting 'tetragonal'
loop_
_space_group_symop_operation_xyz
x,y,z
-y,x,z
-x,-y,z
y,-x,z
x,-y,1/2-z
-x,y,1/2-z
y,x,1/2-z
-y,-x,1/2-z
-x,-y,-z
y,-x,-z
x,y,-z
-y,x,-z
-x,y,1/2+z
x,-y,1/2+z
-y,-x,1/2+z
y,x,1/2+z
loop_
_atom_site_type_symbol
_atom_site_label
_atom_site_fract_x
_atom_site_fract_y
_atom_site_fract_z
Si Si1 0.827206 0.838454 0.642137
Si Si2 0.423927 0.050652 0.392914
Si Si3 0.992047 0.754405 0.638574
Si Si4 0.615769 0.437626 0.387422
Si Si5 0.219717 0.352278 0.111355
O O1 0.846116 0.846116 0.750000
O O2 0.804191 0.928188 0.605452
O O3 0.743670 0.787504 0.632688
O O4 0.907968 0.794485 0.605963
O O5 0.444461 0.066483 0.500000
O O6 0.339977 0.999781 0.389317
O O7 0.398895 0.138863 0.351914
O O8 0.500000 0.000000 0.353971
O O9 0.000000 0.754387 0.750000
O O10 0.607281 0.532187 0.359509
O O11 0.616963 0.436921 0.500000
O O12 0.697354 0.393472 0.355152
O O13 0.218041 0.357836 0.000000
#
# Coordination Sequence:
#
# PCOD9562855 Si02
#       5
#    16  16  16  16  16
#     4   9  18  32  48  67  91 118 149 185 224 268
#     4   9  18  31  46  67  95 122 150 187 227 269
#     4   9  18  32  49  68  91 119 151 187 226 269
#     4   8  14  25  42  65  90 114 145 185 222 259
#     4   9  17  29  46  68  92 118 149 185 225 268
#
# _framework density 20.543230000000001
#
# number of rings (size 3 to 8) (size 9 to 14) (size 15 to 20)
#    0.000    3.200    0.000    0.600    0.000    3.200 
#    0.000    6.000    0.000    3.600    0.000    7.000 
#    0.000    0.000    0.000    0.000    0.000    0.000 
#
# Total GULP energy -446071.548878 kJ/mol
# GULP energy per Si atom -5575.894361 kJ/mol
# Density = 2.049647 g / cm^3
# Si number density = 20.543230 Si / 1000 Ang^3
#
#
#
# Elastic Constant Matrix: (Units=GPa)
#
#
# Indices 1 2 3 4 5 6 
#
# 1 176.1808 136.2557 -7.4501 0.0000 0.0000 0.0000
# 2 136.2557 176.1808 -7.4501 0.0000 0.0000 0.0000
# 3 -7.4501 -7.4501 50.7295 0.0000 0.0000 0.0000
# 4 0.0000 0.0000 0.0000 15.7584 0.0000 0.0000
# 5 0.0000 0.0000 0.0000 0.0000 15.7584 0.0000
# 6 0.0000 0.0000 0.0000 0.0000 0.0000 30.7903
#
#
#
# Elastic Compliance Matrix: (Units=1/GPa)
#
#
# Indices 1 2 3 4 5 6 
#
# 1 0.014135 -0.010912 0.000473 0.000000 0.000000 0.000000
# 2 -0.010912 0.014135 0.000473 0.000000 0.000000 0.000000
# 3 0.000473 0.000473 0.019851 0.000000 0.000000 0.000000
# 4 0.000000 0.000000 0.000000 0.063458 0.000000 0.000000
# 5 0.000000 0.000000 0.000000 0.000000 0.063458 0.000000
# 6 0.000000 0.000000 0.000000 0.000000 0.000000 0.032478
#
#
# Mechanical properties :
#
#
# Convention : Reuss Voigt Hill
#
# Bulk Modulus (GPa) = 35.47188 71.75577 53.61383
# Shear Modulus (GPa) = 21.11105 31.24381 26.17743
#
# Velocity S-wave (km/s) = 3.20916 3.90408 3.57355
# Velocity P-wave (km/s) = 5.57100 7.43824 6.57128
#
# Compressibility (1/GPa) = 0.02819134
#
# Stress axis : x y z
#
# Youngs Moduli (GPa) = 70.74605 70.74605 50.37418
#
# Poissons Ratio (x) = 0.77197 -0.02385
# Poissons Ratio (y) = 0.77197 -0.02385
# Poissons Ratio (z) = -0.03349 -0.03349
#
# Static dielectric constant tensor:
#      x y z
#    x 1.717320 0.000000 0.000000 
#    y 0.000000 1.717320 0.000000 
#    z 0.000000 0.000000 1.800350 
# 
# From -- ./inp_files/5066.got.cif
#   From: 2010.05.17/outbox.cif.g08.bks.cpg/sg124_3_cif.got.tgz:5066.got - 2010.05.20 11:49:17.
