data_PCOD9562126
_publ_section_title
;
Structure prediction by ZEFSAII (Michael W. Deem and Ramdas Pophale) SiO2 
 PCOD9562126
Probable space group: P 4/M M M
;
_chemical_formula_sum "Si O2"
_cell_formula_units_Z 92
_cell_length_a 23.860214
_cell_length_b 23.860214
_cell_length_c 7.509889
_cell_angle_alpha 90.000000
_cell_angle_beta 90.000000
_cell_angle_gamma 90.000000
_cell_volume 4275.453496
_symmetry_space_group_name_H-M "P 4/M M M"
_symmetry_group_IT_number 123
_symmetry_cell_setting 'tetragonal'
loop_
_space_group_symop_operation_xyz
x,y,z
-y,x,z
-x,-y,z
y,-x,z
x,-y,-z
-x,y,-z
y,x,-z
-y,-x,-z
-x,-y,-z
y,-x,-z
x,y,-z
-y,x,-z
-x,y,z
x,-y,z
-y,-x,z
y,x,z
loop_
_atom_site_type_symbol
_atom_site_label
_atom_site_fract_x
_atom_site_fract_y
_atom_site_fract_z
Si Si1 0.430964 0.569037 0.000000
Si Si2 0.845170 0.934460 0.783101
Si Si3 0.644898 0.937776 0.715449
Si Si4 0.638249 0.361752 0.301558
Si Si5 0.658027 0.764733 0.206479
Si Si6 0.850487 0.438729 0.285218
Si Si7 0.855109 0.743619 0.205134
O O1 0.422426 0.500000 0.000000
O O2 0.398840 0.601161 0.835430
O O3 0.904303 0.904303 0.738334
O O4 0.796657 0.890320 0.720649
O O5 0.839525 0.000000 0.724838
O O6 0.841070 0.935744 0.000000
O O7 0.650053 0.936518 0.500000
O O8 0.585297 0.911218 0.761388
O O9 0.693600 0.899555 0.790112
O O10 0.651352 0.000000 0.779348
O O11 0.621669 0.378332 0.500000
O O12 0.706039 0.364576 0.281638
O O13 0.606816 0.807012 0.220956
O O14 0.712436 0.799116 0.281416
O O15 0.670143 0.754689 0.000000
O O16 0.846807 0.439715 0.500000
O O17 0.839573 0.500000 0.215570
O O18 0.842356 0.757340 0.000000
#
# Coordination Sequence:
#
# PCOD9562126 Si02
#       7
#     4  16  16   8  16  16  16
#     4  11  28  56  84 112 148 188 234 280 317 368
#     4   9  17  28  44  70 102 143 198 260 330 404
#     4   9  17  29  46  69 101 142 189 246 306 364
#     4  12  25  45  75 110 144 178 219 269 327 385
#     4  10  20  36  58  88 124 162 203 253 316 384
#     4   9  18  32  49  73 108 150 197 246 299 365
#     4   9  18  31  52  76 107 151 196 249 314 391
#
# _framework density 21.518184000000002
#
# number of rings (size 3 to 8) (size 9 to 14) (size 15 to 20)
#    0.000    2.478    0.870    1.043    1.217    3.652 
#    0.000    3.043    0.000    0.000    0.000    4.870 
#    0.000    0.000    0.000    3.652    0.000    3.478 
#
# Total GULP energy -512481.527282 kJ/mol
# GULP energy per Si atom -5570.451383 kJ/mol
# Density = 2.146921 g / cm^3
# Si number density = 21.518184 Si / 1000 Ang^3
#
#
#
# Elastic Constant Matrix: (Units=GPa)
#
#
# Indices 1 2 3 4 5 6 
#
# 1 160.6511 86.6765 24.8811 0.0000 0.0000 0.0000
# 2 86.6765 160.6489 24.8800 0.0000 0.0000 0.0000
# 3 24.8811 24.8800 82.2797 0.0000 0.0000 0.0000
# 4 0.0000 0.0000 0.0000 26.4404 0.0000 0.0000
# 5 0.0000 0.0000 0.0000 0.0000 26.4395 0.0000
# 6 0.0000 0.0000 0.0000 0.0000 0.0000 26.7865
#
#
#
# Elastic Compliance Matrix: (Units=1/GPa)
#
#
# Indices 1 2 3 4 5 6 
#
# 1 0.008912 -0.004607 -0.001302 0.000000 0.000000 0.000000
# 2 -0.004607 0.008912 -0.001302 0.000000 0.000000 0.000000
# 3 -0.001302 -0.001302 0.012941 0.000000 0.000000 0.000000
# 4 0.000000 0.000000 0.000000 0.037821 0.000000 0.000000
# 5 0.000000 0.000000 0.000000 0.000000 0.037822 0.000000
# 6 0.000000 0.000000 0.000000 0.000000 0.000000 0.037332
#
#
# Mechanical properties :
#
#
# Convention : Reuss Voigt Hill
#
# Bulk Modulus (GPa) = 61.18466 75.16164 68.17315
# Shear Modulus (GPa) = 30.56081 33.74278 32.15179
#
# Velocity S-wave (km/s) = 3.77268 3.96423 3.86964
# Velocity P-wave (km/s) = 6.89008 7.48055 7.19138
#
# Compressibility (1/GPa) = 0.01634397
#
# Stress axis : x y z
#
# Youngs Moduli (GPa) = 112.21188 112.21079 77.27385
#
# Poissons Ratio (x) = 0.51691 0.10060
# Poissons Ratio (y) = 0.51691 0.10059
# Poissons Ratio (z) = 0.14609 0.14607
#
# Static dielectric constant tensor:
#      x y z
#    x 1.787280 0.000000 0.000000 
#    y 0.000000 1.787280 0.000000 
#    z 0.000000 0.000000 1.829680 
# 
# From -- ./inp_files/1692.got.cif
#   From: 2010.05.17/outbox.cif.g08.bks.cpg/sg123_1_cif.got.tgz:1692.got - 2010.05.20 11:43:04.
