data_PCOD9562970
_publ_section_title
;
Structure prediction by ZEFSAII (Michael W. Deem and Ramdas Pophale) SiO2 
 PCOD9562970
Probable space group: P 4/N B M
;
_chemical_formula_sum "Si O2"
_cell_formula_units_Z 80
_cell_length_a 25.816043
_cell_length_b 25.816043
_cell_length_c 6.049088
_cell_angle_alpha 90.000000
_cell_angle_beta 90.000000
_cell_angle_gamma 90.000000
_cell_volume 4031.524042
_symmetry_space_group_name_H-M "P 4/N B M"
_symmetry_group_IT_number 125
_space_group.IT_coordinate_system_code '2'
_symmetry_cell_setting 'tetragonal'
loop_
_space_group_symop_operation_xyz
x,y,z
1/2-y,x,z
1/2-x,1/2-y,z
y,1/2-x,z
x,1/2-y,-z
1/2-x,y,-z
y,x,-z
1/2-y,1/2-x,-z
-x,-y,-z
1/2+y,-x,-z
1/2+x,1/2+y,-z
-y,1/2+x,-z
-x,1/2+y,z
1/2+x,-y,z
-y,-x,z
1/2+y,1/2+x,z
loop_
_atom_site_type_symbol
_atom_site_label
_atom_site_fract_x
_atom_site_fract_y
_atom_site_fract_z
Si Si1 0.153262 0.929593 0.244833
Si Si2 0.750000 0.038579 0.500000
Si Si3 0.101780 0.020633 0.500560
Si Si4 0.490657 0.318139 0.126044
Si Si5 0.401521 0.156560 0.173889
Si Si6 0.811844 0.811844 0.500000
O O1 0.123684 0.876317 0.201802
O O2 0.202972 0.927747 0.404619
O O3 0.112884 0.968639 0.365347
O O4 0.173639 0.959606 0.029233
O O5 0.725533 0.002714 0.692170
O O6 0.044553 0.044553 0.500000
O O7 0.128096 0.015126 0.738764
O O8 0.136305 0.063340 0.372504
O O9 0.440000 0.308409 0.974836
O O10 0.347035 0.172123 0.287947
O O11 0.387651 0.112350 0.000000
O O12 0.750000 0.820281 0.500000
#
# Coordination Sequence:
#
# PCOD9562970 Si02
#       6
#    16   8  16  16  16   8
#     4  10  23  40  64  97 134 174 210 260 325 389
#     4  10  22  44  64  99 132 171 212 272 316 390
#     4  10  19  38  59  89 131 164 210 258 312 391
#     4  10  21  39  62  91 134 161 220 269 323 388
#     4  11  20  41  61  88 112 163 214 278 332 391
#     4  11  26  46  56  80 119 160 222 288 355 400
#
# _framework density 19.843612
#
# number of rings (size 3 to 8) (size 9 to 14) (size 15 to 20)
#    0.000    1.700    3.000    0.600    0.000    4.400 
#   43.200    2.000    0.000    0.300    0.000    0.000 
#    0.000    0.000    0.000    0.000    0.000    0.000 
#
# Total GULP energy -445977.884755 kJ/mol
# GULP energy per Si atom -5574.723559 kJ/mol
# Density = 1.979845 g / cm^3
# Si number density = 19.843612 Si / 1000 Ang^3
#
#
#
# Elastic Constant Matrix: (Units=GPa)
#
#
# Indices 1 2 3 4 5 6 
#
# 1 81.1448 60.7734 43.0173 0.0000 0.0000 0.0000
# 2 60.7734 81.1474 43.0178 0.0000 0.0000 0.0000
# 3 43.0173 43.0178 109.1435 0.0000 0.0000 0.0000
# 4 0.0000 0.0000 0.0000 -0.0885 0.0000 0.0000
# 5 0.0000 0.0000 0.0000 0.0000 -0.0891 0.0000
# 6 0.0000 0.0000 0.0000 0.0000 0.0000 20.0621
#
#
#
# Elastic Compliance Matrix: (Units=1/GPa)
#
#
# Indices 1 2 3 4 5 6 
#
# 1 0.029172 -0.019913 -0.003649 0.000000 0.000000 0.000000
# 2 -0.019913 0.029171 -0.003649 0.000000 0.000000 0.000000
# 3 -0.003649 -0.003649 0.012039 0.000000 0.000000 0.000000
# 4 0.000000 0.000000 0.000000-11.295848 0.000000 0.000000
# 5 0.000000 0.000000 0.000000 0.000000-11.224790 0.000000
# 6 0.000000 0.000000 0.000000 0.000000 0.000000 0.049845
#
#
# Mechanical properties :
#
#
# Convention : Reuss Voigt Hill
#
# Bulk Modulus (GPa) = 62.65975 62.78364 62.72170
# Shear Modulus (GPa) = -0.22381 12.28537 6.03078
#
# Velocity S-wave (km/s) = -0.33620 2.49089 1.74521
# Velocity P-wave (km/s) = 5.61201 6.32302 5.97810
#
# Compressibility (1/GPa) = 0.01595921
#
# Stress axis : x y z
#
# Youngs Moduli (GPa) = 34.27899 34.28014 83.06519
#
# Poissons Ratio (x) = 0.68264 0.30312
# Poissons Ratio (y) = 0.68261 0.30311
# Poissons Ratio (z) = 0.12509 0.12509
#
# Static dielectric constant tensor:
#      x y z
#    x 1.717020 0.000000 0.000000 
#    y 0.000000 1.717020 0.000000 
#    z 0.000000 0.000000 1.733860 
# 
# From -- ./inp_files/1185.got.cif
#   From: 2010.05.17/outbox.cif.g08.bks.cpg/sg125_1_cif.got.tgz:1185.got - 2010.05.20 11:54:10.
