data_PCOD9562790
_publ_section_title
;
Structure prediction by ZEFSAII (Michael W. Deem and Ramdas Pophale) SiO2 
 PCOD9562790
Probable space group: P 4/M C C
;
_chemical_formula_sum "Si O2"
_cell_formula_units_Z 88
_cell_length_a 17.452349
_cell_length_b 17.452349
_cell_length_c 15.364039
_cell_angle_alpha 90.000000
_cell_angle_beta 90.000000
_cell_angle_gamma 90.000000
_cell_volume 4679.647916
_symmetry_space_group_name_H-M "P 4/M C C"
_symmetry_group_IT_number 124
_symmetry_cell_setting 'tetragonal'
loop_
_space_group_symop_operation_xyz
x,y,z
-y,x,z
-x,-y,z
y,-x,z
x,-y,1/2-z
-x,y,1/2-z
y,x,1/2-z
-y,-x,1/2-z
-x,-y,-z
y,-x,-z
x,y,-z
-y,x,-z
-x,y,1/2+z
x,-y,1/2+z
-y,-x,1/2+z
y,x,1/2+z
loop_
_atom_site_type_symbol
_atom_site_label
_atom_site_fract_x
_atom_site_fract_y
_atom_site_fract_z
Si Si1 0.644428 0.166755 0.599767
Si Si2 0.588589 0.720317 0.750000
Si Si3 1.000000 0.591242 0.849145
Si Si4 0.833244 0.644428 0.900233
Si Si5 0.821765 0.178236 0.851093
Si Si6 0.090301 0.909698 0.000000
O O1 0.636947 0.192725 0.500000
O O2 0.603266 0.224554 0.666540
O O3 0.615446 0.079587 0.607637
O O4 0.732933 0.164581 0.627553
O O5 0.500000 0.694194 0.750000
O O6 0.651308 0.651308 0.750000
O O7 0.603267 0.775446 0.666540
O O8 0.000000 0.500000 0.845927
O O9 0.000000 0.621760 0.750000
O O10 0.920413 0.615447 0.892362
O O11 0.835417 0.732934 0.872449
O O12 0.807274 0.636946 0.000000
O O13 0.836917 0.163083 0.750000
O O14 0.872212 0.127789 0.915248
O O15 1.000000 0.895388 0.000000
#
# Coordination Sequence:
#
# PCOD9562790 Si02
#       6
#    16  16  16  16  16   8
#     4  12  23  41  68  98 135 176 222 272 336 407
#     4  12  26  46  69  99 135 175 225 281 338 407
#     4  11  23  39  61  96 139 172 208 268 341 410
#     4  12  23  41  68  98 135 176 222 272 336 407
#     4  12  23  43  71 100 130 175 231 277 329 392
#     4  11  28  48  68 100 140 184 237 290 336 386
#
# _framework density 18.804832999999999
#
# number of rings (size 3 to 8) (size 9 to 14) (size 15 to 20)
#    0.000    0.273    7.273    1.636    2.545    4.545 
#    0.000    0.909    0.000    0.000    0.000    2.545 
#    0.000    0.000    0.000    0.000    0.000    0.000 
#
# Total GULP energy -492119.483087 kJ/mol
# GULP energy per Si atom -5592.266853 kJ/mol
# Density = 1.876203 g / cm^3
# Si number density = 18.804833 Si / 1000 Ang^3
#
#
#
# Elastic Constant Matrix: (Units=GPa)
#
#
# Indices 1 2 3 4 5 6 
#
# 1 161.4349 18.2179 46.2892 0.0000 0.0000 0.0000
# 2 18.2179 161.4345 46.2888 0.0000 0.0000 0.0000
# 3 46.2892 46.2888 194.3229 0.0000 0.0000 0.0000
# 4 0.0000 0.0000 0.0000 9.1357 0.0000 0.0000
# 5 0.0000 0.0000 0.0000 0.0000 9.1314 0.0000
# 6 0.0000 0.0000 0.0000 0.0000 0.0000 23.4920
#
#
#
# Elastic Compliance Matrix: (Units=1/GPa)
#
#
# Indices 1 2 3 4 5 6 
#
# 1 0.006664 -0.000319 -0.001511 0.000000 0.000000 0.000000
# 2 -0.000319 0.006664 -0.001511 0.000000 0.000000 0.000000
# 3 -0.001511 -0.001511 0.005866 0.000000 0.000000 0.000000
# 4 0.000000 0.000000 0.000000 0.109460 0.000000 0.000000
# 5 0.000000 0.000000 0.000000 0.000000 0.109513 0.000000
# 6 0.000000 0.000000 0.000000 0.000000 0.000000 0.042568
#
#
# Mechanical properties :
#
#
# Convention : Reuss Voigt Hill
#
# Bulk Modulus (GPa) = 79.93182 82.08712 81.00947
# Shear Modulus (GPa) = 17.14749 35.44491 26.29620
#
# Velocity S-wave (km/s) = 3.02299 4.34623 3.74354
# Velocity P-wave (km/s) = 7.40155 8.30260 7.86499
#
# Compressibility (1/GPa) = 0.01251066
#
# Stress axis : x y z
#
# Youngs Moduli (GPa) = 150.06461 150.06441 170.46937
#
# Poissons Ratio (x) = 0.04781 0.25766
# Poissons Ratio (y) = 0.04781 0.25766
# Poissons Ratio (z) = 0.22682 0.22682
#
# Static dielectric constant tensor:
#      x y z
#    x 1.617210 0.000000 0.000000 
#    y 0.000000 1.617210 0.000000 
#    z 0.000000 0.000000 1.678420 
# 
# From -- ./inp_files/3237.got.cif
#   From: 2010.05.17/outbox.cif.g08.bks.cpg/sg124_2_cif.got.tgz:3237.got - 2010.05.20 11:49:17.
