data_PCOD9562181
_publ_section_title
;
Structure prediction by ZEFSAII (Michael W. Deem and Ramdas Pophale) SiO2 
 PCOD9562181
Probable space group: P 4/M M M
;
_chemical_formula_sum "Si O2"
_cell_formula_units_Z 96
_cell_length_a 24.898663
_cell_length_b 24.898663
_cell_length_c 8.426151
_cell_angle_alpha 90.000000
_cell_angle_beta 90.000000
_cell_angle_gamma 90.000000
_cell_volume 5223.736862
_symmetry_space_group_name_H-M "P 4/M M M"
_symmetry_group_IT_number 123
_symmetry_cell_setting 'tetragonal'
loop_
_space_group_symop_operation_xyz
x,y,z
-y,x,z
-x,-y,z
y,-x,z
x,-y,-z
-x,y,-z
y,x,-z
-y,-x,-z
-x,-y,-z
y,-x,-z
x,y,-z
-y,x,-z
-x,y,z
x,-y,z
-y,-x,z
y,x,z
loop_
_atom_site_type_symbol
_atom_site_label
_atom_site_fract_x
_atom_site_fract_y
_atom_site_fract_z
Si Si1 0.061547 0.852762 0.809138
Si Si2 0.767726 0.853485 0.688629
Si Si3 0.648609 0.853243 0.810885
Si Si4 0.353270 0.438980 0.691761
Si Si5 0.268316 0.646191 0.191308
Si Si6 0.438643 0.061687 0.308608
O O1 0.090798 0.909203 0.775828
O O2 0.097477 0.807293 0.728168
O O3 0.000000 0.851660 0.758584
O O4 0.063712 0.844559 0.000000
O O5 0.760604 0.848898 0.500000
O O6 0.799662 0.799662 0.745232
O O7 0.710475 0.864035 0.767159
O O8 0.639737 0.792306 0.749765
O O9 0.606079 0.896190 0.746052
O O10 0.643041 0.853210 0.000000
O O11 0.350058 0.438767 0.500000
O O12 0.352286 0.500000 0.747490
O O13 0.407548 0.407548 0.736669
O O14 0.304561 0.403810 0.757698
O O15 0.300262 0.699739 0.247242
O O16 0.266575 0.648801 0.000000
O O17 0.438767 0.061610 0.500000
O O18 0.500000 0.075133 0.256968
O O19 0.427283 0.000000 0.257005
#
# Coordination Sequence:
#
# PCOD9562181 Si02
#       6
#    16  16  16  16  16  16
#     4   9  18  33  53  77 106 140 177 218 263 309
#     4  10  21  36  54  77 106 140 177 218 263 310
#     4  11  22  35  56  83 107 135 172 212 258 315
#     4   9  18  32  50  73 101 134 172 213 255 297
#     4   9  19  35  52  72 102 137 169 205 251 301
#     4   9  20  40  61  79 104 138 173 212 259 308
#
# _framework density 18.377649000000002
#
# number of rings (size 3 to 8) (size 9 to 14) (size 15 to 20)
#    0.000    2.500    0.000    2.000    0.000    6.000 
#    0.000    7.500    0.000    0.000    0.000    4.667 
#    0.000    0.000    0.000    0.000    0.000    0.000 
#
# Total GULP energy -535462.620014 kJ/mol
# GULP energy per Si atom -5577.735625 kJ/mol
# Density = 1.833582 g / cm^3
# Si number density = 18.377649 Si / 1000 Ang^3
#
#
#
# Elastic Constant Matrix: (Units=GPa)
#
#
# Indices 1 2 3 4 5 6 
#
# 1 169.0355 73.1146 20.4591 0.0000 0.0000 0.0000
# 2 73.1146 169.0355 20.4591 0.0000 0.0000 0.0000
# 3 20.4591 20.4591 11.8150 0.0000 0.0000 0.0000
# 4 0.0000 0.0000 0.0000 22.7091 0.0000 0.0000
# 5 0.0000 0.0000 0.0000 0.0000 22.7091 0.0000
# 6 0.0000 0.0000 0.0000 0.0000 0.0000 22.1498
#
#
#
# Elastic Compliance Matrix: (Units=1/GPa)
#
#
# Indices 1 2 3 4 5 6 
#
# 1 0.008132 -0.002294 -0.010109 0.000000 0.000000 0.000000
# 2 -0.002294 0.008132 -0.010109 0.000000 0.000000 0.000000
# 3 -0.010109 -0.010109 0.119649 0.000000 0.000000 0.000000
# 4 0.000000 0.000000 0.000000 0.044035 0.000000 0.000000
# 5 0.000000 0.000000 0.000000 0.000000 0.044035 0.000000
# 6 0.000000 0.000000 0.000000 0.000000 0.000000 0.045147
#
#
# Mechanical properties :
#
#
# Convention : Reuss Voigt Hill
#
# Bulk Modulus (GPa) = 11.00252 64.21686 37.60969
# Shear Modulus (GPa) = 14.51593 29.23714 21.87654
#
# Velocity S-wave (km/s) = 2.81351 3.99295 3.45394
# Velocity P-wave (km/s) = 4.06870 7.50179 6.03454
#
# Compressibility (1/GPa) = 0.09088823
#
# Stress axis : x y z
#
# Youngs Moduli (GPa) = 122.97749 122.97749 8.35780
#
# Poissons Ratio (x) = 0.28207 0.08449
# Poissons Ratio (y) = 0.28207 0.08449
# Poissons Ratio (z) = 1.24319 1.24319
#
# Static dielectric constant tensor:
#      x y z
#    x 1.620840 0.000000 0.000000 
#    y 0.000000 1.620840 0.000000 
#    z 0.000000 0.000000 1.640370 
# 
# From -- ./inp_files/1556.got.cif
#   From: 2010.05.17/outbox.cif.g08.bks.cpg/sg123_1_cif.got.tgz:1556.got - 2010.05.20 11:43:04.
