data_PCOD9562788
_publ_section_title
;
Structure prediction by ZEFSAII (Michael W. Deem and Ramdas Pophale) SiO2 
 PCOD9562788
Probable space group: P 4/M C C
;
_chemical_formula_sum "Si O2"
_cell_formula_units_Z 88
_cell_length_a 12.781249
_cell_length_b 12.781249
_cell_length_c 28.218076
_cell_angle_alpha 90.000000
_cell_angle_beta 90.000000
_cell_angle_gamma 90.000000
_cell_volume 4609.714094
_symmetry_space_group_name_H-M "P 4/M C C"
_symmetry_group_IT_number 124
_symmetry_cell_setting 'tetragonal'
loop_
_space_group_symop_operation_xyz
x,y,z
-y,x,z
-x,-y,z
y,-x,z
x,-y,1/2-z
-x,y,1/2-z
y,x,1/2-z
-y,-x,1/2-z
-x,-y,-z
y,-x,-z
x,y,-z
-y,x,-z
-x,y,1/2+z
x,-y,1/2+z
-y,-x,1/2+z
y,x,1/2+z
loop_
_atom_site_type_symbol
_atom_site_label
_atom_site_fract_x
_atom_site_fract_y
_atom_site_fract_z
Si Si1 0.657168 0.957962 0.000000
Si Si2 0.853679 0.076675 0.107470
Si Si3 0.178129 0.362587 0.130219
Si Si4 0.360334 0.591777 0.305568
Si Si5 0.000000 0.500000 0.416070
Si Si6 0.819314 0.867495 0.500000
Si Si7 0.410512 0.650449 0.053757
O O1 0.586709 0.951840 0.047533
O O2 0.749098 0.869032 0.000000
O O3 0.703357 0.077586 0.000000
O O4 0.748600 0.124098 0.126778
O O5 0.957245 0.136673 0.122899
O O6 0.856246 0.086270 0.050230
O O7 0.247602 0.370696 0.177643
O O8 0.090823 0.448706 0.116270
O O9 0.266391 0.366890 0.089667
O O10 0.362471 0.470898 0.323730
O O11 0.383018 0.616982 0.250000
O O12 0.362471 0.535192 0.059542
O O13 0.389762 0.684205 0.000000
#
# Coordination Sequence:
#
# PCOD9562788 Si02
#       7
#     8  16  16  16   8   8  16
#     4  11  24  37  56  78 130 170 243 276 314 357
#     4  11  23  38  56  81 112 158 223 270 293 355
#     4  12  23  37  61  87 122 166 199 258 335 378
#     4   9  20  41  69  98 122 149 199 259 318 401
#     4  11  26  42  46  91 132 166 210 291 323 388
#     4  12  18  37  56  76 102 176 220 264 297 341
#     4   9  20  36  51  77 116 161 210 248 294 377
#
# _framework density 19.090119999999999
#
# number of rings (size 3 to 8) (size 9 to 14) (size 15 to 20)
#    0.000    1.455    3.636    2.182    3.818    8.182 
#    0.000    0.000    0.000    7.636    0.000    1.273 
#    0.000    0.000    0.000    0.000    0.000    0.000 
#
# Total GULP energy -490378.332708 kJ/mol
# GULP energy per Si atom -5572.481054 kJ/mol
# Density = 1.904667 g / cm^3
# Si number density = 19.090120 Si / 1000 Ang^3
#
#
#
# Elastic Constant Matrix: (Units=GPa)
#
#
# Indices 1 2 3 4 5 6 
#
# 1 152.0148 25.5799 23.0225 0.0000 0.0000 0.0000
# 2 25.5799 152.0148 23.0225 0.0000 0.0000 0.0000
# 3 23.0225 23.0225 52.1687 0.0000 0.0000 0.0000
# 4 0.0000 0.0000 0.0000 1.4421 0.0000 0.0000
# 5 0.0000 0.0000 0.0000 0.0000 1.4421 0.0000
# 6 0.0000 0.0000 0.0000 0.0000 0.0000 86.2565
#
#
#
# Elastic Compliance Matrix: (Units=1/GPa)
#
#
# Indices 1 2 3 4 5 6 
#
# 1 0.007134 -0.000775 -0.002806 0.000000 0.000000 0.000000
# 2 -0.000775 0.007134 -0.002806 0.000000 0.000000 0.000000
# 3 -0.002806 -0.002806 0.021645 0.000000 0.000000 0.000000
# 4 0.000000 0.000000 0.000000 0.693423 0.000000 0.000000
# 5 0.000000 0.000000 0.000000 0.000000 0.693423 0.000000
# 6 0.000000 0.000000 0.000000 0.000000 0.000000 0.011593
#
#
# Mechanical properties :
#
#
# Convention : Reuss Voigt Hill
#
# Bulk Modulus (GPa) = 43.21916 55.49425 49.35671
# Shear Modulus (GPa) = 3.43681 36.79972 20.11826
#
# Velocity S-wave (km/s) = 1.34321 4.39530 3.24984
# Velocity P-wave (km/s) = 5.00942 7.40884 6.32397
#
# Compressibility (1/GPa) = 0.02313788
#
# Stress axis : x y z
#
# Youngs Moduli (GPa) = 140.17865 140.17865 46.19969
#
# Poissons Ratio (x) = 0.10870 0.12963
# Poissons Ratio (y) = 0.10870 0.12963
# Poissons Ratio (z) = 0.39334 0.39334
#
# Static dielectric constant tensor:
#      x y z
#    x 1.698150 0.000000 0.000000 
#    y 0.000000 1.698150 0.000000 
#    z 0.000000 0.000000 1.720630 
# 
# From -- ./inp_files/7142.got.cif
#   From: 2010.05.17/outbox.cif.g08.bks.cpg/sg124_4_cif.got.tgz:7142.got - 2010.05.20 11:49:17.
