data_PCOD9562166
_publ_section_title
;
Structure prediction by ZEFSAII (Michael W. Deem and Ramdas Pophale) SiO2 
 PCOD9562166
Probable space group: P 4/M M M
;
_chemical_formula_sum "Si O2"
_cell_formula_units_Z 120
_cell_length_a 28.743388
_cell_length_b 28.743388
_cell_length_c 8.232082
_cell_angle_alpha 90.000000
_cell_angle_beta 90.000000
_cell_angle_gamma 90.000000
_cell_volume 6801.200883
_symmetry_space_group_name_H-M "P 4/M M M"
_symmetry_group_IT_number 123
_symmetry_cell_setting 'tetragonal'
loop_
_space_group_symop_operation_xyz
x,y,z
-y,x,z
-x,-y,z
y,-x,z
x,-y,-z
-x,y,-z
y,x,-z
-y,-x,-z
-x,-y,-z
y,-x,-z
x,y,-z
-y,x,-z
-x,y,z
x,-y,z
-y,-x,z
y,x,z
loop_
_atom_site_type_symbol
_atom_site_label
_atom_site_fract_x
_atom_site_fract_y
_atom_site_fract_z
Si Si1 0.100627 0.289523 0.811678
Si Si2 0.133444 0.446801 0.807699
Si Si3 0.716863 0.643863 0.698225
Si Si4 0.764648 0.552726 0.305635
Si Si5 0.056066 0.811713 0.816187
Si Si6 0.052718 0.379862 0.690324
Si Si7 0.205791 0.720214 0.696058
Si Si8 0.055567 0.870727 0.500000
O O1 0.078293 0.238834 0.791651
O O2 0.072524 0.327990 0.712583
O O3 0.154732 0.286798 0.765409
O O4 0.096539 0.303102 0.000000
O O5 0.124302 0.500000 0.753898
O O6 0.182213 0.431836 0.727933
O O7 0.090136 0.414287 0.768552
O O8 0.141044 0.446801 0.000000
O O9 0.715735 0.642762 0.500000
O O10 0.669508 0.669508 0.751815
O O11 0.729477 0.592232 0.756439
O O12 0.759337 0.678377 0.742081
O O13 0.759057 0.550391 0.500000
O O14 0.759004 0.500000 0.240510
O O15 0.069935 0.843771 0.664611
O O16 0.000000 0.807527 0.811903
O O17 0.068589 0.827997 0.000000
O O18 0.051264 0.390761 0.500000
O O19 0.000000 0.383457 0.755947
O O20 0.202649 0.720371 0.500000
O O21 0.232028 0.767973 0.745461
O O22 0.079645 0.920356 0.500000
O O23 0.000000 0.873872 0.500000
#
# Coordination Sequence:
#
# PCOD9562166 Si02
#       8
#    16  16  16  16  16  16  16   8
#     4  11  22  35  53  76 103 133 165 207 255 304
#     4  10  21  36  53  73  99 131 165 207 263 317
#     4   8  14  26  43  63  91 127 161 196 243 293
#     4   9  16  27  47  73  96 121 161 210 251 294
#     4   9  20  38  57  79 108 140 173 210 253 305
#     4  11  24  38  54  75  97 127 169 215 259 306
#     4   9  18  31  47  68  95 129 167 201 237 292
#     4  10  22  39  62  88 112 142 173 207 253 305
#
# _framework density 17.643943
#
# number of rings (size 3 to 8) (size 9 to 14) (size 15 to 20)
#    0.000    2.400    0.000    3.200    1.867    4.867 
#    0.000    2.667    0.000    1.200    0.000    1.867 
#    0.000    0.267    0.000    3.733    0.000    0.000 
#
# Total GULP energy -669303.948560 kJ/mol
# GULP energy per Si atom -5577.532905 kJ/mol
# Density = 1.760378 g / cm^3
# Si number density = 17.643943 Si / 1000 Ang^3
#
#
#
# Elastic Constant Matrix: (Units=GPa)
#
#
# Indices 1 2 3 4 5 6 
#
# 1 63.5438 64.2391 15.7770 0.0000 0.0000 0.0000
# 2 64.2391 63.5264 15.7738 0.0000 0.0000 0.0000
# 3 15.7770 15.7738 37.2595 0.0000 0.0000 0.0000
# 4 0.0000 0.0000 0.0000 1.0763 0.0000 0.0000
# 5 0.0000 0.0000 0.0000 0.0000 1.0733 0.0000
# 6 0.0000 0.0000 0.0000 0.0000 0.0000 69.4738
#
#
#
# Elastic Compliance Matrix: (Units=1/GPa)
#
#
# Indices 1 2 3 4 5 6 
#
# 1 -0.705727 0.714558 -0.003678 0.000000 0.000000 0.000000
# 2 0.714558 -0.705910 -0.003723 0.000000 0.000000 0.000000
# 3 -0.003678 -0.003723 0.029972 0.000000 0.000000 0.000000
# 4 0.000000 0.000000 0.000000 0.929108 0.000000 0.000000
# 5 0.000000 0.000000 0.000000 0.000000 0.931742 0.000000
# 6 0.000000 0.000000 0.000000 0.000000 0.000000 0.014394
#
#
# Mechanical properties :
#
#
# Convention : Reuss Voigt Hill
#
# Bulk Modulus (GPa) = 30.62742 39.54550 35.08646
# Shear Modulus (GPa) = -5.49540 18.89399 6.69929
#
# Velocity S-wave (km/s) = -1.76674 3.27593 1.95069
# Velocity P-wave (km/s) = 3.63792 6.06389 5.00026
#
# Compressibility (1/GPa) = 0.03265048
#
# Stress axis : x y z
#
# Youngs Moduli (GPa) = -1.41698 -1.41661 33.36416
#
# Poissons Ratio (x) = 1.01225 0.12272
# Poissons Ratio (y) = 1.01251 0.12420
# Poissons Ratio (z) = -0.00521 -0.00527
#
# Static dielectric constant tensor:
#      x y z
#    x 1.593570 0.000000 0.000000 
#    y 0.000000 1.593580 0.000000 
#    z 0.000000 0.000000 1.624140 
# 
# From -- ./inp_files/2063.got.cif
#   From: 2010.05.17/outbox.cif.g08.bks.cpg/sg123_2_cif.got.tgz:2063.got - 2010.05.20 11:43:04.
