data_PCOD9562860
_publ_section_title
;
Structure prediction by ZEFSAII (Michael W. Deem and Ramdas Pophale) SiO2 
 PCOD9562860
Probable space group: P 4/M C C
;
_chemical_formula_sum "Si O2"
_cell_formula_units_Z 96
_cell_length_a 24.000000
_cell_length_b 24.000000
_cell_length_c 9.000000
_cell_angle_alpha 90.000000
_cell_angle_beta 90.000000
_cell_angle_gamma 90.000000
_cell_volume 5184.000000
_symmetry_space_group_name_H-M "P 4/M C C"
_symmetry_group_IT_number 124
_symmetry_cell_setting 'tetragonal'
loop_
_space_group_symop_operation_xyz
x,y,z
-y,x,z
-x,-y,z
y,-x,z
x,-y,1/2-z
-x,y,1/2-z
y,x,1/2-z
-y,-x,1/2-z
-x,-y,-z
y,-x,-z
x,y,-z
-y,x,-z
-x,y,1/2+z
x,-y,1/2+z
-y,-x,1/2+z
y,x,1/2+z
loop_
_atom_site_type_symbol
_atom_site_label
_atom_site_fract_x
_atom_site_fract_y
_atom_site_fract_z
Si Si1 0.847474 0.556450 0.823891
Si Si2 0.737615 0.943134 0.830259
Si Si3 0.375430 0.753815 0.680353
Si Si4 0.946271 0.605867 0.331495
Si Si5 0.180378 0.733174 0.682019
Si Si6 0.562967 0.352983 0.817391
O O1 0.868786 0.500000 0.750000
O O2 0.794232 0.574209 0.728291
O O3 0.895271 0.599619 0.781457
O O4 0.836975 0.553538 0.000000
O O5 0.671712 0.954270 0.847084
O O6 0.739574 0.883762 0.741266
O O7 0.759979 0.000000 0.750000
O O8 0.759925 0.936710 0.000000
O O9 0.369408 0.749170 0.500000
O O10 0.321022 0.785210 0.751618
O O11 0.395383 0.695866 0.755587
O O12 0.936266 0.583957 0.500000
O O13 0.000000 0.580736 0.250000
O O14 0.215055 0.784946 0.750000
O O15 0.181648 0.730874 0.500000
O O16 0.500000 0.345459 0.750000
O O17 0.590537 0.409464 0.750000
O O18 0.561851 0.352683 0.000000
#
# Coordination Sequence:
#
# PCOD9562860 Si02
#       6
#    16  16  16  16  16  16
#     4  12  24  38  56  79 109 148 195 246 298 352
#     4  10  20  36  59  86 120 160 203 249 300 357
#     4  12  24  42  63  89 122 158 197 242 297 359
#     4  10  20  35  55  78 108 145 191 243 295 350
#     4  12  24  39  61  91 126 164 206 253 302 355
#     4  12  26  47  71  98 125 156 193 239 295 361
#
# _framework density 18.518519000000001
#
# number of rings (size 3 to 8) (size 9 to 14) (size 15 to 20)
#    0.000    0.667    1.667    8.000    0.000    1.833 
#    0.000    2.500    0.000    0.000    0.000    0.000 
#    0.000    0.333    0.000    3.333    0.000    2.000 
#
# Total GULP energy -535460.462974 kJ/mol
# GULP energy per Si atom -5577.713156 kJ/mol
# Density = 1.847637 g / cm^3
# Si number density = 18.518519 Si / 1000 Ang^3
#
#
#
# Elastic Constant Matrix: (Units=GPa)
#
#
# Indices 1 2 3 4 5 6 
#
# 1 86.5330 26.1996 48.4370 0.0000 0.0000 0.0000
# 2 26.1996 86.5309 48.4360 0.0000 0.0000 0.0000
# 3 48.4370 48.4360 211.6780 0.0000 0.0000 0.0000
# 4 0.0000 0.0000 0.0000 31.1602 0.0000 0.0000
# 5 0.0000 0.0000 0.0000 0.0000 31.1606 0.0000
# 6 0.0000 0.0000 0.0000 0.0000 0.0000 10.0698
#
#
#
# Elastic Compliance Matrix: (Units=1/GPa)
#
#
# Indices 1 2 3 4 5 6 
#
# 1 0.013808 -0.002767 -0.002527 0.000000 0.000000 0.000000
# 2 -0.002767 0.013808 -0.002527 0.000000 0.000000 0.000000
# 3 -0.002527 -0.002527 0.005880 0.000000 0.000000 0.000000
# 4 0.000000 0.000000 0.000000 0.032092 0.000000 0.000000
# 5 0.000000 0.000000 0.000000 0.000000 0.032092 0.000000
# 6 0.000000 0.000000 0.000000 0.000000 0.000000 0.099307
#
#
# Mechanical properties :
#
#
# Convention : Reuss Voigt Hill
#
# Bulk Modulus (GPa) = 55.99847 70.09856 63.04852
# Shear Modulus (GPa) = 22.87488 31.92272 27.39880
#
# Velocity S-wave (km/s) = 3.51842 4.15640 3.85065
# Velocity P-wave (km/s) = 6.84182 7.80831 7.34099
#
# Compressibility (1/GPa) = 0.01785763
#
# Stress axis : x y z
#
# Youngs Moduli (GPa) = 72.42085 72.41925 170.05542
#
# Poissons Ratio (x) = 0.20035 0.42966
# Poissons Ratio (y) = 0.20035 0.42966
# Poissons Ratio (z) = 0.18298 0.18297
#
# Static dielectric constant tensor:
#      x y z
#    x 1.694690 0.000000 0.000000 
#    y 0.000000 1.694690 0.000000 
#    z 0.000000 0.000000 1.648270 
# 
# From -- ./inp_files/1348.got.cif
#   From: 2010.05.17/outbox.ucp.g08.bks.cvg/sg124_1_cif.got.tgz:1348.got - 2010.06.11 11:36:13.
