data_PCOD9562186
_publ_section_title
;
Structure prediction by ZEFSAII (Michael W. Deem and Ramdas Pophale) SiO2 
 PCOD9562186
Probable space group: P 4/M M M
;
_chemical_formula_sum "Si O2"
_cell_formula_units_Z 96
_cell_length_a 23.760275
_cell_length_b 23.760275
_cell_length_c 7.915136
_cell_angle_alpha 90.000000
_cell_angle_beta 90.000000
_cell_angle_gamma 90.000000
_cell_volume 4468.495317
_symmetry_space_group_name_H-M "P 4/M M M"
_symmetry_group_IT_number 123
_symmetry_cell_setting 'tetragonal'
loop_
_space_group_symop_operation_xyz
x,y,z
-y,x,z
-x,-y,z
y,-x,z
x,-y,-z
-x,y,-z
y,x,-z
-y,-x,-z
-x,-y,-z
y,-x,-z
x,y,-z
-y,x,-z
-x,y,z
x,-y,z
-y,-x,z
y,x,z
loop_
_atom_site_type_symbol
_atom_site_label
_atom_site_fract_x
_atom_site_fract_y
_atom_site_fract_z
Si Si1 0.567865 0.778301 0.810061
Si Si2 0.436310 0.901006 0.694742
Si Si3 0.061119 0.319970 0.801707
Si Si4 0.345100 0.435336 0.703421
Si Si5 0.759307 0.153906 0.195457
Si Si6 0.936372 0.150982 0.297839
O O1 0.500000 0.773458 0.813131
O O2 0.578238 0.834460 0.705198
O O3 0.586883 0.717270 0.747739
O O4 0.588559 0.788463 0.000000
O O5 0.436381 0.918575 0.500000
O O6 0.500000 0.908021 0.762561
O O7 0.386885 0.933361 0.786923
O O8 0.118361 0.292514 0.727485
O O9 0.000000 0.302089 0.729240
O O10 0.060683 0.304874 0.000000
O O11 0.348518 0.437328 0.500000
O O12 0.351648 0.500000 0.764816
O O13 0.393629 0.393629 0.766319
O O14 0.790289 0.209712 0.269351
O O15 0.806831 0.105499 0.205238
O O16 0.745909 0.167612 0.000000
O O17 0.933259 0.162983 0.500000
O O18 0.911144 0.088857 0.273977
O O19 0.000000 0.156617 0.241301
#
# Coordination Sequence:
#
# PCOD9562186 Si02
#       6
#    16  16  16  16  16  16
#     4   9  17  31  52  74  96 127 169 214 260 314
#     4  10  21  37  57  80 106 137 174 217 267 324
#     4  10  21  36  55  81 112 145 180 217 261 316
#     4   9  17  29  46  70 102 140 182 229 281 337
#     4   9  18  34  55  76 100 133 173 215 255 296
#     4   9  17  28  43  65  93 126 164 205 249 296
#
# _framework density 21.483740999999998
#
# number of rings (size 3 to 8) (size 9 to 14) (size 15 to 20)
#    0.000    2.667    0.000    1.500    0.000    6.000 
#    0.000    4.167    0.000    3.000    0.000    4.667 
#    0.000    0.000    0.000    0.000    0.000    0.000 
#
# Total GULP energy -534868.476879 kJ/mol
# GULP energy per Si atom -5571.546634 kJ/mol
# Density = 2.143484 g / cm^3
# Si number density = 21.483741 Si / 1000 Ang^3
#
#
#
# Elastic Constant Matrix: (Units=GPa)
#
#
# Indices 1 2 3 4 5 6 
#
# 1 83.1132 31.6343 -0.5258 0.0000 0.0000 0.0000
# 2 31.6343 83.1132 -0.5258 0.0000 0.0000 0.0000
# 3 -0.5258 -0.5258 27.3486 0.0000 0.0000 0.0000
# 4 0.0000 0.0000 0.0000 15.1274 0.0000 0.0000
# 5 0.0000 0.0000 0.0000 0.0000 15.1274 0.0000
# 6 0.0000 0.0000 0.0000 0.0000 0.0000 21.1471
#
#
#
# Elastic Compliance Matrix: (Units=1/GPa)
#
#
# Indices 1 2 3 4 5 6 
#
# 1 0.014071 -0.005355 0.000168 0.000000 0.000000 0.000000
# 2 -0.005355 0.014071 0.000168 0.000000 0.000000 0.000000
# 3 0.000168 0.000168 0.036571 0.000000 0.000000 0.000000
# 4 0.000000 0.000000 0.000000 0.066105 0.000000 0.000000
# 5 0.000000 0.000000 0.000000 0.000000 0.066105 0.000000
# 6 0.000000 0.000000 0.000000 0.000000 0.000000 0.047288
#
#
# Mechanical properties :
#
#
# Convention : Reuss Voigt Hill
#
# Bulk Modulus (GPa) = 18.29014 28.30451 23.29733
# Shear Modulus (GPa) = 18.35031 21.14653 19.74842
#
# Velocity S-wave (km/s) = 2.92575 3.14077 3.03516
# Velocity P-wave (km/s) = 4.46602 5.13381 4.81151
#
# Compressibility (1/GPa) = 0.05467426
#
# Stress axis : x y z
#
# Youngs Moduli (GPa) = 71.06884 71.06884 27.34381
#
# Poissons Ratio (x) = 0.38054 -0.00458
# Poissons Ratio (y) = 0.38054 -0.00458
# Poissons Ratio (z) = -0.01191 -0.01191
#
# Static dielectric constant tensor:
#      x y z
#    x 1.810160 0.000000 0.000000 
#    y 0.000000 1.810160 0.000000 
#    z 0.000000 0.000000 1.790430 
# 
# From -- ./inp_files/1595.got.cif
#   From: 2010.05.17/outbox.cif.g08.bks.cpg/sg123_1_cif.got.tgz:1595.got - 2010.05.20 11:43:04.
