data_PCOD9562942
_publ_section_title
;
Structure prediction by ZEFSAII (Michael W. Deem and Ramdas Pophale) SiO2 
 PCOD9562942
Probable space group: P 4/N B M
;
_chemical_formula_sum "Si O2"
_cell_formula_units_Z 96
_cell_length_a 20.050606
_cell_length_b 20.050606
_cell_length_c 12.981378
_cell_angle_alpha 90.000000
_cell_angle_beta 90.000000
_cell_angle_gamma 90.000000
_cell_volume 5218.861869
_symmetry_space_group_name_H-M "P 4/N B M"
_symmetry_group_IT_number 125
_space_group.IT_coordinate_system_code '2'
_symmetry_cell_setting 'tetragonal'
loop_
_space_group_symop_operation_xyz
x,y,z
1/2-y,x,z
1/2-x,1/2-y,z
y,1/2-x,z
x,1/2-y,-z
1/2-x,y,-z
y,x,-z
1/2-y,1/2-x,-z
-x,-y,-z
1/2+y,-x,-z
1/2+x,1/2+y,-z
-y,1/2+x,-z
-x,1/2+y,z
1/2+x,-y,z
-y,-x,z
1/2+y,1/2+x,z
loop_
_atom_site_type_symbol
_atom_site_label
_atom_site_fract_x
_atom_site_fract_y
_atom_site_fract_z
Si Si1 0.103761 0.008265 0.204750
Si Si2 0.504905 0.385162 0.193071
Si Si3 0.713896 0.923220 0.684971
Si Si4 0.637578 0.747518 0.109624
Si Si5 0.061069 0.826997 0.018320
Si Si6 0.591176 0.648246 0.395730
O O1 0.123667 0.033162 0.318791
O O2 0.060422 0.071155 0.165732
O O3 0.156761 0.984498 0.118879
O O4 0.053131 0.946870 0.215089
O O5 0.563104 0.436897 0.224391
O O6 0.485075 0.334204 0.284898
O O7 0.526279 0.350802 0.087390
O O8 0.750673 0.907863 0.791879
O O9 0.662965 0.863684 0.658318
O O10 0.772908 0.924103 0.602053
O O11 0.687525 0.685192 0.112359
O O12 0.601310 0.750000 0.000000
O O13 0.127009 0.872992 0.030094
O O14 0.076881 0.750000 0.000000
O O15 0.604966 0.604966 0.500000
#
# Coordination Sequence:
#
# PCOD9562942 Si02
#       6
#    16  16  16  16  16  16
#     4   9  19  36  55  74 100 136 180 227 272 320
#     4   9  19  34  53  76 103 134 173 220 264 321
#     4  11  20  34  51  71 104 138 175 215 270 327
#     4   9  17  30  45  67 100 134 170 207 251 314
#     4  10  19  33  53  79 109 140 174 214 268 331
#     4  11  23  35  50  73 101 140 182 224 270 321
#
# _framework density 18.394815000000001
#
# number of rings (size 3 to 8) (size 9 to 14) (size 15 to 20)
#    0.000    2.167    1.667    2.500    0.000    4.833 
#    3.000    0.833    0.000    0.000    0.000    0.000 
#    0.000    0.000    0.000    0.000    0.000   95.333 
#
# Total GULP energy -534800.228502 kJ/mol
# GULP energy per Si atom -5570.835714 kJ/mol
# Density = 1.835295 g / cm^3
# Si number density = 18.394815 Si / 1000 Ang^3
#
#
#
# Elastic Constant Matrix: (Units=GPa)
#
#
# Indices 1 2 3 4 5 6 
#
# 1 92.0434 46.6657 47.2148 0.0000 0.0000 0.0000
# 2 46.6657 92.0434 47.2148 0.0000 0.0000 0.0000
# 3 47.2148 47.2148 113.0288 0.0000 0.0000 0.0000
# 4 0.0000 0.0000 0.0000 21.8868 0.0000 0.0000
# 5 0.0000 0.0000 0.0000 0.0000 21.8868 0.0000
# 6 0.0000 0.0000 0.0000 0.0000 0.0000 21.4657
#
#
#
# Elastic Compliance Matrix: (Units=1/GPa)
#
#
# Indices 1 2 3 4 5 6 
#
# 1 0.016056 -0.005982 -0.004208 0.000000 0.000000 0.000000
# 2 -0.005982 0.016056 -0.004208 0.000000 0.000000 0.000000
# 3 -0.004208 -0.004208 0.012363 0.000000 0.000000 0.000000
# 4 0.000000 0.000000 0.000000 0.045690 0.000000 0.000000
# 5 0.000000 0.000000 0.000000 0.000000 0.045690 0.000000
# 6 0.000000 0.000000 0.000000 0.000000 0.000000 0.046586
#
#
# Mechanical properties :
#
#
# Convention : Reuss Voigt Hill
#
# Bulk Modulus (GPa) = 63.78151 64.36734 64.07442
# Shear Modulus (GPa) = 23.09877 23.44923 23.27400
#
# Velocity S-wave (km/s) = 3.54746 3.57427 3.56089
# Velocity P-wave (km/s) = 7.17832 7.21817 7.19827
#
# Compressibility (1/GPa) = 0.01567853
#
# Stress axis : x y z
#
# Youngs Moduli (GPa) = 62.28310 62.28310 80.88625
#
# Poissons Ratio (x) = 0.37255 0.34039
# Poissons Ratio (y) = 0.37255 0.34039
# Poissons Ratio (z) = 0.26210 0.26210
#
# Static dielectric constant tensor:
#      x y z
#    x 1.663150 0.000000 0.000000 
#    y 0.000000 1.663150 0.000000 
#    z 0.000000 0.000000 1.699450 
# 
# From -- ./inp_files/4170.got.cif
#   From: 2010.05.17/outbox.cif.g08.bks.cpg/sg125_3_cif.got.tgz:4170.got - 2010.05.20 11:54:10.
