data_PCOD9562631
_publ_section_title
;
Structure prediction by ZEFSAII (Michael W. Deem and Ramdas Pophale) SiO2 
 PCOD9562631
Probable space group: P 4/M C C
;
_chemical_formula_sum "Si O2"
_cell_formula_units_Z 88
_cell_length_a 16.700234
_cell_length_b 16.700234
_cell_length_c 14.686788
_cell_angle_alpha 90.000000
_cell_angle_beta 90.000000
_cell_angle_gamma 90.000000
_cell_volume 4096.113092
_symmetry_space_group_name_H-M "P 4/M C C"
_symmetry_group_IT_number 124
_symmetry_cell_setting 'tetragonal'
loop_
_space_group_symop_operation_xyz
x,y,z
-y,x,z
-x,-y,z
y,-x,z
x,-y,1/2-z
-x,y,1/2-z
y,x,1/2-z
-y,-x,1/2-z
-x,-y,-z
y,-x,-z
x,y,-z
-y,x,-z
-x,y,1/2+z
x,-y,1/2+z
-y,-x,1/2+z
y,x,1/2+z
loop_
_atom_site_type_symbol
_atom_site_label
_atom_site_fract_x
_atom_site_fract_y
_atom_site_fract_z
Si Si1 0.721241 0.798014 0.106785
Si Si2 0.774652 0.618098 0.109478
Si Si3 0.901172 0.172805 0.327229
Si Si4 0.374485 0.476312 0.889105
Si Si5 0.350145 0.091795 0.747543
Si Si6 0.868579 0.017347 0.000000
O O1 0.729530 0.703145 0.130015
O O2 0.812820 0.826246 0.126903
O O3 0.657547 0.850968 0.163235
O O4 0.704715 0.805040 0.000000
O O5 0.714072 0.548029 0.136651
O O6 0.855468 0.611999 0.166869
O O7 0.788885 0.618096 0.000000
O O8 0.896063 0.103938 0.250000
O O9 0.912658 0.256772 0.278811
O O10 0.967548 0.173520 0.405195
O O11 0.438737 0.409302 0.859621
O O12 0.375556 0.476165 0.000000
O O13 0.380529 0.000000 0.750000
O O14 0.935061 0.086409 0.000000
#
# Coordination Sequence:
#
# PCOD9562631 Si02
#       6
#    16  16  16  16  16   8
#     4   9  17  32  49  68  91 130 183 242 291 341
#     4   9  17  31  51  80 119 152 187 234 283 341
#     4   9  19  32  46  60  83 118 168 229 292 351
#     4   8  14  27  53  92 132 163 187 215 270 357
#     4  10  21  31  48  72  95 140 191 243 290 338
#     4  11  24  32  40  58  84 124 162 221 294 378
#
# _framework density 21.483781
#
# number of rings (size 3 to 8) (size 9 to 14) (size 15 to 20)
#    0.000    2.818    0.909    2.182    6.364    0.727 
#    0.000    0.909    0.000    4.364    0.000    7.636 
#    0.000    7.273    0.000    0.000    0.000    0.909 
#
# Total GULP energy -490702.402403 kJ/mol
# GULP energy per Si atom -5576.163664 kJ/mol
# Density = 2.143488 g / cm^3
# Si number density = 21.483781 Si / 1000 Ang^3
#
#
#
# Elastic Constant Matrix: (Units=GPa)
#
#
# Indices 1 2 3 4 5 6 
#
# 1 38.9757 36.1864 17.3894 0.0000 0.0000 0.0000
# 2 36.1864 38.9760 17.3898 0.0000 0.0000 0.0000
# 3 17.3894 17.3898 82.6330 0.0000 0.0000 0.0000
# 4 0.0000 0.0000 0.0000 146.8927 0.0000 0.0000
# 5 0.0000 0.0000 0.0000 0.0000 147.0473 0.0000
# 6 0.0000 0.0000 0.0000 0.0000 0.0000 38.6484
#
#
#
# Elastic Compliance Matrix: (Units=1/GPa)
#
#
# Indices 1 2 3 4 5 6 
#
# 1 0.186621 -0.171881 -0.003101 0.000000 0.000000 0.000000
# 2 -0.171881 0.186620 -0.003103 0.000000 0.000000 0.000000
# 3 -0.003101 -0.003103 0.013407 0.000000 0.000000 0.000000
# 4 0.000000 0.000000 0.000000 0.006808 0.000000 0.000000
# 5 0.000000 0.000000 0.000000 0.000000 0.006801 0.000000
# 6 0.000000 0.000000 0.000000 0.000000 0.000000 0.025874
#
#
# Mechanical properties :
#
#
# Convention : Reuss Voigt Hill
#
# Bulk Modulus (GPa) = 32.80910 33.61288 33.21099
# Shear Modulus (GPa) = 6.30946 72.49229 39.40087
#
# Velocity S-wave (km/s) = 1.71558 5.81516 4.28715
# Velocity P-wave (km/s) = 4.38509 7.79537 6.32443
#
# Compressibility (1/GPa) = 0.03047935
#
# Stress axis : x y z
#
# Youngs Moduli (GPa) = 5.35845 5.35847 74.58640
#
# Poissons Ratio (x) = 0.92102 0.23131
# Poissons Ratio (y) = 0.92101 0.23141
# Poissons Ratio (z) = 0.01662 0.01663
#
# Static dielectric constant tensor:
#      x y z
#    x 1.792290 0.000000 0.000000 
#    y 0.000000 1.792290 0.000000 
#    z 0.000000 0.000000 1.569820 
# 
# From -- ./inp_files/3196.got.cif
#   From: 2010.05.17/outbox.cif.g08.bks.cpg/sg124_2_cif.got.tgz:3196.got - 2010.05.20 11:49:17.
