data_PCOD9562097
_publ_section_title
;
Structure prediction by ZEFSAII (Michael W. Deem and Ramdas Pophale) SiO2 
 PCOD9562097
Probable space group: P 4/M M M
;
_chemical_formula_sum "Si O2"
_cell_formula_units_Z 84
_cell_length_a 12.791022
_cell_length_b 12.791022
_cell_length_c 29.559371
_cell_angle_alpha 90.000000
_cell_angle_beta 90.000000
_cell_angle_gamma 90.000000
_cell_volume 4836.215896
_symmetry_space_group_name_H-M "P 4/M M M"
_symmetry_group_IT_number 123
_symmetry_cell_setting 'tetragonal'
loop_
_space_group_symop_operation_xyz
x,y,z
-y,x,z
-x,-y,z
y,-x,z
x,-y,-z
-x,y,-z
y,x,-z
-y,-x,-z
-x,-y,-z
y,-x,-z
x,y,-z
-y,x,-z
-x,y,z
x,-y,z
-y,-x,z
y,x,z
loop_
_atom_site_type_symbol
_atom_site_label
_atom_site_fract_x
_atom_site_fract_y
_atom_site_fract_z
Si Si1 0.295283 0.880333 0.182406
Si Si2 0.205434 0.618464 0.090841
Si Si3 0.294324 0.118112 0.000000
Si Si4 0.123707 0.500000 0.572056
Si Si5 0.378481 0.793592 0.274588
Si Si6 0.881145 0.707712 0.366821
Si Si7 0.500000 0.683365 0.500000
O O1 0.195383 0.804618 0.182026
O O2 0.357168 0.859621 0.136028
O O3 0.361626 0.849202 0.226484
O O4 0.263796 0.000000 0.185240
O O5 0.241770 0.500000 0.091432
O O6 0.302519 0.697482 0.090612
O O7 0.140664 0.640522 0.045342
O O8 0.197970 0.197970 0.000000
O O9 0.256838 0.000000 0.000000
O O10 0.130658 0.604752 0.602240
O O11 0.229140 0.500000 0.540728
O O12 0.000000 0.500000 0.553931
O O13 0.500000 0.777780 0.283575
O O14 0.314831 0.685170 0.273116
O O15 0.328334 0.860159 0.315241
O O16 0.796057 0.796057 0.378310
O O17 0.000000 0.746181 0.371424
O O18 0.397551 0.602450 0.500000
#
# Coordination Sequence:
#
# PCOD9562097 Si02
#       7
#    16  16   8   8  16  16   4
#     4  10  21  35  52  75 102 133 172 216 262 315
#     4  10  21  36  53  76 102 130 167 209 255 310
#     4  10  21  36  54  76 102 130 165 208 254 308
#     4  10  20  37  60  83 111 149 193 233 273 326
#     4  10  20  34  52  76 106 140 180 223 267 320
#     4  10  20  34  54  80 110 145 185 229 276 327
#     4  11  23  38  58  86 121 153 184 232 286 331
#
# _framework density 17.368952
#
# number of rings (size 3 to 8) (size 9 to 14) (size 15 to 20)
#    0.000    1.952    0.952    2.714    0.000    4.667 
#    0.000    0.000    0.000   12.000    0.000    0.000 
#    0.000    6.857    0.000    0.000    0.000    0.000 
#
# Total GULP energy -468359.434084 kJ/mol
# GULP energy per Si atom -5575.707549 kJ/mol
# Density = 1.732942 g / cm^3
# Si number density = 17.368952 Si / 1000 Ang^3
#
#
#
# Elastic Constant Matrix: (Units=GPa)
#
#
# Indices 1 2 3 4 5 6 
#
# 1 120.8106 21.6441 38.8457 0.0000 0.0000 0.0000
# 2 21.6441 120.8105 38.8457 0.0000 0.0000 0.0000
# 3 38.8457 38.8457 91.7248 0.0000 0.0000 0.0000
# 4 0.0000 0.0000 0.0000 13.8150 0.0000 0.0000
# 5 0.0000 0.0000 0.0000 0.0000 13.8150 0.0000
# 6 0.0000 0.0000 0.0000 0.0000 0.0000 9.2535
#
#
#
# Elastic Compliance Matrix: (Units=1/GPa)
#
#
# Indices 1 2 3 4 5 6 
#
# 1 0.009606 -0.000478 -0.003866 0.000000 0.000000 0.000000
# 2 -0.000478 0.009606 -0.003866 0.000000 0.000000 0.000000
# 3 -0.003866 -0.003866 0.014176 0.000000 0.000000 0.000000
# 4 0.000000 0.000000 0.000000 0.072385 0.000000 0.000000
# 5 0.000000 0.000000 0.000000 0.000000 0.072385 0.000000
# 6 0.000000 0.000000 0.000000 0.000000 0.000000 0.108068
#
#
# Mechanical properties :
#
#
# Convention : Reuss Voigt Hill
#
# Bulk Modulus (GPa) = 58.92892 59.11298 59.02095
# Shear Modulus (GPa) = 16.21785 22.97738 19.59761
#
# Velocity S-wave (km/s) = 3.05901 3.64111 3.36268
# Velocity P-wave (km/s) = 6.81749 7.19615 7.00937
#
# Compressibility (1/GPa) = 0.01696960
#
# Stress axis : x y z
#
# Youngs Moduli (GPa) = 104.10094 104.10086 70.53929
#
# Poissons Ratio (x) = 0.04976 0.27269
# Poissons Ratio (y) = 0.04976 0.27269
# Poissons Ratio (z) = 0.40243 0.40243
#
# Static dielectric constant tensor:
#      x y z
#    x 1.560760 0.000000 0.000000 
#    y 0.000000 1.560760 0.000000 
#    z 0.000000 0.000000 1.612290 
# 
# From -- ./inp_files/8537.got.cif
#   From: 2010.05.17/outbox.cif.g08.bks.cpg/sg123_5_cif.got.tgz:8537.got - 2010.05.20 11:43:04.
