data_PCOD9562679
_publ_section_title
;
Structure prediction by ZEFSAII (Michael W. Deem and Ramdas Pophale) SiO2 
 PCOD9562679
Probable space group: P 4/M C C
;
_chemical_formula_sum "Si O2"
_cell_formula_units_Z 92
_cell_length_a 14.344232
_cell_length_b 14.344232
_cell_length_c 23.034888
_cell_angle_alpha 90.000000
_cell_angle_beta 90.000000
_cell_angle_gamma 90.000000
_cell_volume 4739.589258
_symmetry_space_group_name_H-M "P 4/M C C"
_symmetry_group_IT_number 124
_symmetry_cell_setting 'tetragonal'
loop_
_space_group_symop_operation_xyz
x,y,z
-y,x,z
-x,-y,z
y,-x,z
x,-y,1/2-z
-x,y,1/2-z
y,x,1/2-z
-y,-x,1/2-z
-x,-y,-z
y,-x,-z
x,y,-z
-y,x,-z
-x,y,1/2+z
x,-y,1/2+z
-y,-x,1/2+z
y,x,1/2+z
loop_
_atom_site_type_symbol
_atom_site_label
_atom_site_fract_x
_atom_site_fract_y
_atom_site_fract_z
Si Si1 0.952168 0.763271 0.689520
Si Si2 0.905721 0.454137 0.813179
Si Si3 0.287741 0.536575 0.117971
Si Si4 0.339879 0.730967 0.933560
Si Si5 0.111754 0.109055 0.500000
Si Si6 0.500000 0.500000 0.156248
Si Si7 0.136341 0.206182 0.121766
O O1 0.925318 0.655245 0.693796
O O2 0.860658 0.819012 0.670265
O O3 0.000000 0.792967 0.750000
O O4 0.030690 0.776241 0.640262
O O5 0.896527 0.500000 0.750000
O O6 0.807736 0.466646 0.845697
O O7 0.000000 0.500000 0.840379
O O8 0.291913 0.633709 0.083631
O O9 0.284432 0.449434 0.074624
O O10 0.385963 0.525562 0.152665
O O11 0.301311 0.807214 0.888374
O O12 0.320656 0.756702 0.000000
O O13 0.154945 0.145108 0.440162
O O14 0.002009 0.126980 0.500000
#
# Coordination Sequence:
#
# PCOD9562679 Si02
#       7
#    16  16  16  16   8   4  16
#     4  12  25  44  65  96 129 173 226 277 332 391
#     4  11  22  42  67  90 129 177 223 273 330 399
#     4  10  21  41  64  95 133 174 216 273 329 398
#     4  11  22  38  65  96 133 172 217 271 329 398
#     4  11  22  42  66  88 128 173 212 268 346 391
#     4   8  20  40  62  96 128 162 220 268 330 392
#     4  12  24  41  67  96 131 170 221 279 329 400
#
# _framework density 19.410965000000001
#
# number of rings (size 3 to 8) (size 9 to 14) (size 15 to 20)
#    0.000    0.957    6.087    2.087    0.000    0.348 
#    0.000    7.391    0.000    2.087    0.000    0.000 
#    0.000    0.000    0.000    0.000    0.000    0.000 
#
# Total GULP energy -512498.494005 kJ/mol
# GULP energy per Si atom -5570.635804 kJ/mol
# Density = 1.936678 g / cm^3
# Si number density = 19.410965 Si / 1000 Ang^3
#
#
#
# Elastic Constant Matrix: (Units=GPa)
#
#
# Indices 1 2 3 4 5 6 
#
# 1 132.7344 -60.7364 11.2664 0.0000 0.0000 0.0000
# 2 -60.7364 132.7344 11.2664 0.0000 0.0000 0.0000
# 3 11.2664 11.2664 69.7477 0.0000 0.0000 0.0000
# 4 0.0000 0.0000 0.0000 24.9839 0.0000 0.0000
# 5 0.0000 0.0000 0.0000 0.0000 24.9839 0.0000
# 6 0.0000 0.0000 0.0000 0.0000 0.0000 33.4776
#
#
#
# Elastic Compliance Matrix: (Units=1/GPa)
#
#
# Indices 1 2 3 4 5 6 
#
# 1 0.009899 0.004730 -0.002363 0.000000 0.000000 0.000000
# 2 0.004730 0.009899 -0.002363 0.000000 0.000000 0.000000
# 3 -0.002363 -0.002363 0.015101 0.000000 0.000000 0.000000
# 4 0.000000 0.000000 0.000000 0.040026 0.000000 0.000000
# 5 0.000000 0.000000 0.000000 0.000000 0.040026 0.000000
# 6 0.000000 0.000000 0.000000 0.000000 0.000000 0.029871
#
#
# Mechanical properties :
#
#
# Convention : Reuss Voigt Hill
#
# Bulk Modulus (GPa) = 28.64804 28.75658 28.70231
# Shear Modulus (GPa) = 31.95947 41.58374 36.77160
#
# Velocity S-wave (km/s) = 4.06207 4.63350 4.35716
# Velocity P-wave (km/s) = 6.06558 6.59337 6.33497
#
# Compressibility (1/GPa) = 0.03490640
#
# Stress axis : x y z
#
# Youngs Moduli (GPa) = 101.02258 101.02258 66.22171
#
# Poissons Ratio (x) = -0.47784 0.15648
# Poissons Ratio (y) = -0.47784 0.15648
# Poissons Ratio (z) = 0.23872 0.23872
#
# Static dielectric constant tensor:
#      x y z
#    x 1.670450 0.000000 0.000000 
#    y 0.000000 1.670450 0.000000 
#    z 0.000000 0.000000 1.674840 
# 
# From -- ./inp_files/5374.got.cif
#   From: 2010.05.17/outbox.cif.g08.bks.cpg/sg124_3_cif.got.tgz:5374.got - 2010.05.20 11:49:17.
