data_PCOD9562671
_publ_section_title
;
Structure prediction by ZEFSAII (Michael W. Deem and Ramdas Pophale) SiO2 
 PCOD9562671
Probable space group: P 4/M C C
;
_chemical_formula_sum "Si O2"
_cell_formula_units_Z 112
_cell_length_a 14.856119
_cell_length_b 14.856119
_cell_length_c 23.110366
_cell_angle_alpha 90.000000
_cell_angle_beta 90.000000
_cell_angle_gamma 90.000000
_cell_volume 5100.556498
_symmetry_space_group_name_H-M "P 4/M C C"
_symmetry_group_IT_number 124
_symmetry_cell_setting 'tetragonal'
loop_
_space_group_symop_operation_xyz
x,y,z
-y,x,z
-x,-y,z
y,-x,z
x,-y,1/2-z
-x,y,1/2-z
y,x,1/2-z
-y,-x,1/2-z
-x,-y,-z
y,-x,-z
x,y,-z
-y,x,-z
-x,y,1/2+z
x,-y,1/2+z
-y,-x,1/2+z
y,x,1/2+z
loop_
_atom_site_type_symbol
_atom_site_label
_atom_site_fract_x
_atom_site_fract_y
_atom_site_fract_z
Si Si1 0.600875 0.269895 0.565400
Si Si2 0.075791 0.552868 0.103598
Si Si3 0.678374 0.078755 0.293314
Si Si4 0.908022 0.882713 0.930813
Si Si5 0.775111 0.762847 0.856234
Si Si6 0.835073 0.574189 0.195715
Si Si7 0.352932 0.496859 0.837307
O O1 0.617423 0.299092 0.500000
O O2 0.575864 0.164385 0.567931
O O3 0.689627 0.271203 0.605842
O O4 0.520190 0.325290 0.596227
O O5 0.050068 0.639266 0.143627
O O6 0.103465 0.476484 0.149922
O O7 0.000000 0.500000 0.068808
O O8 0.742375 0.162045 0.309983
O O9 0.594427 0.118850 0.256860
O O10 0.713519 0.000000 0.250000
O O11 0.847788 0.811904 0.896779
O O12 0.014590 0.877593 0.917161
O O13 0.898363 0.870777 0.000000
O O14 0.814453 0.675010 0.826462
O O15 0.741071 0.521174 0.192765
O O16 0.416136 0.412558 0.823046
#
# Coordination Sequence:
#
# PCOD9562671 Si02
#       7
#    16  16  16  16  16  16  16
#     4  10  22  39  61  91 125 161 202 254 315 372
#     4  10  21  39  62  87 121 159 207 253 299 365
#     4  11  23  39  64  92 121 166 206 245 312 375
#     4   9  20  40  66  93 123 167 215 256 310 378
#     4  11  23  39  61  93 130 159 199 265 310 370
#     4  11  22  39  61  92 123 159 209 257 303 364
#     4  10  21  42  65  88 121 162 209 259 308 365
#
# _framework density 21.958389
#
# number of rings (size 3 to 8) (size 9 to 14) (size 15 to 20)
#    0.000    1.714    2.857    1.714    2.000    0.857 
#    2.571    1.429    0.000    0.000    0.000    0.000 
#    0.000    0.000    0.000    0.000    0.000    0.000 
#
# Total GULP energy -625201.188100 kJ/mol
# GULP energy per Si atom -5582.153465 kJ/mol
# Density = 2.190841 g / cm^3
# Si number density = 21.958389 Si / 1000 Ang^3
#
#
#
# Elastic Constant Matrix: (Units=GPa)
#
#
# Indices 1 2 3 4 5 6 
#
# 1 59.2742 13.5643 21.8348 0.0000 0.0000 0.0000
# 2 13.5643 59.2742 21.8348 0.0000 0.0000 0.0000
# 3 21.8348 21.8348 90.2840 0.0000 0.0000 0.0000
# 4 0.0000 0.0000 0.0000 11.4335 0.0000 0.0000
# 5 0.0000 0.0000 0.0000 0.0000 11.4335 0.0000
# 6 0.0000 0.0000 0.0000 0.0000 0.0000 42.7970
#
#
#
# Elastic Compliance Matrix: (Units=1/GPa)
#
#
# Indices 1 2 3 4 5 6 
#
# 1 0.018967 -0.002910 -0.003883 0.000000 0.000000 0.000000
# 2 -0.002910 0.018967 -0.003883 0.000000 0.000000 0.000000
# 3 -0.003883 -0.003883 0.012955 0.000000 0.000000 0.000000
# 4 0.000000 0.000000 0.000000 0.087462 0.000000 0.000000
# 5 0.000000 0.000000 0.000000 0.000000 0.087462 0.000000
# 6 0.000000 0.000000 0.000000 0.000000 0.000000 0.023366
#
#
# Mechanical properties :
#
#
# Convention : Reuss Voigt Hill
#
# Bulk Modulus (GPa) = 33.85755 35.92224 34.88989
# Shear Modulus (GPa) = 17.83308 23.23937 20.53623
#
# Velocity S-wave (km/s) = 2.85288 3.25674 3.06148
# Velocity P-wave (km/s) = 5.12878 5.52599 5.33108
#
# Compressibility (1/GPa) = 0.02953551
#
# Stress axis : x y z
#
# Youngs Moduli (GPa) = 52.72263 52.72263 77.19317
#
# Poissons Ratio (x) = 0.15342 0.29977
# Poissons Ratio (y) = 0.15342 0.29977
# Poissons Ratio (z) = 0.20474 0.20474
#
# Static dielectric constant tensor:
#      x y z
#    x 1.827340 0.000000 0.000000 
#    y 0.000000 1.827340 0.000000 
#    z 0.000000 0.000000 1.789250 
# 
# From -- ./inp_files/6073.got.cif
#   From: 2010.05.17/outbox.cif.g08.bks.cpg/sg124_4_cif.got.tgz:6073.got - 2010.05.20 11:49:17.
