data_PCOD9562014
_publ_section_title
;
Structure prediction by ZEFSAII (Michael W. Deem and Ramdas Pophale) SiO2 
 PCOD9562014
Probable space group: P 4/M M M
;
_chemical_formula_sum "Si O2"
_cell_formula_units_Z 112
_cell_length_a 14.103971
_cell_length_b 14.103971
_cell_length_c 36.103078
_cell_angle_alpha 90.000000
_cell_angle_beta 90.000000
_cell_angle_gamma 90.000000
_cell_volume 7181.696409
_symmetry_space_group_name_H-M "P 4/M M M"
_symmetry_group_IT_number 123
_symmetry_cell_setting 'tetragonal'
loop_
_space_group_symop_operation_xyz
x,y,z
-y,x,z
-x,-y,z
y,-x,z
x,-y,-z
-x,y,-z
y,x,-z
-y,-x,-z
-x,-y,-z
y,-x,-z
x,y,-z
-y,x,-z
-x,y,z
x,-y,z
-y,-x,z
y,x,z
loop_
_atom_site_type_symbol
_atom_site_label
_atom_site_fract_x
_atom_site_fract_y
_atom_site_fract_z
Si Si1 0.387350 0.230086 0.194078
Si Si2 0.611981 0.768787 0.400652
Si Si3 0.610393 0.889603 0.326850
Si Si4 0.384655 0.890300 0.959205
Si Si5 0.889483 0.265931 0.456037
Si Si6 0.611818 0.235434 0.109311
Si Si7 0.887587 0.269758 0.747222
O O1 0.500000 0.241464 0.200426
O O2 0.328232 0.328232 0.198769
O O3 0.373233 0.198945 0.151223
O O4 0.340047 0.155043 0.221711
O O5 0.500000 0.753682 0.405059
O O6 0.672564 0.672564 0.401822
O O7 0.628578 0.821545 0.361479
O O8 0.653463 0.837530 0.432369
O O9 0.500000 0.877360 0.315434
O O10 0.678985 0.871962 0.292336
O O11 0.621395 0.000000 0.338236
O O12 0.500000 0.889158 0.041226
O O13 0.352842 0.832039 0.076436
O O14 0.355982 0.000000 0.043678
O O15 0.355433 0.853973 0.000000
O O16 0.882792 0.285653 0.500000
O O17 0.830910 0.169091 0.448993
O O18 0.000000 0.257523 0.446292
O O19 0.500000 0.248707 0.104737
O O20 0.666087 0.333914 0.106470
O O21 0.826518 0.173483 0.748808
O O22 0.000000 0.255329 0.752054
#
# Coordination Sequence:
#
# PCOD9562014 Si02
#       7
#    16  16  16  16  16  16  16
#     4   9  18  31  46  66  91 118 150 187 227 272
#     4  10  20  33  49  69  95 127 162 199 235 271
#     4   9  17  30  50  74  95 117 149 188 231 278
#     4   8  14  25  40  57  78 106 141 180 218 251
#     4   9  18  32  50  73  99 125 154 190 234 284
#     4   9  17  28  42  62  88 116 144 174 211 259
#     4  10  20  33  49  69  94 123 154 189 228 271
#
# _framework density 15.595202
#
# number of rings (size 3 to 8) (size 9 to 14) (size 15 to 20)
#    0.000    2.857    0.000    1.714    0.000    3.571 
#    0.000    4.286    0.000    0.000    0.000    8.000 
#    0.000    0.286    0.000    1.571    0.000    0.143 
#
# Total GULP energy -623702.035092 kJ/mol
# GULP energy per Si atom -5568.768170 kJ/mol
# Density = 1.555971 g / cm^3
# Si number density = 15.595202 Si / 1000 Ang^3
#
#
#
# Elastic Constant Matrix: (Units=GPa)
#
#
# Indices 1 2 3 4 5 6 
#
# 1 99.1636 61.5723 65.4224 0.0000 0.0000 0.0000
# 2 61.5723 99.1636 65.4224 0.0000 0.0000 0.0000
# 3 65.4224 65.4224 87.9260 0.0000 0.0000 0.0000
# 4 0.0000 0.0000 0.0000 24.2250 0.0000 0.0000
# 5 0.0000 0.0000 0.0000 0.0000 24.2250 0.0000
# 6 0.0000 0.0000 0.0000 0.0000 0.0000 9.3238
#
#
#
# Elastic Compliance Matrix: (Units=1/GPa)
#
#
# Indices 1 2 3 4 5 6 
#
# 1 0.021190 -0.005412 -0.011740 0.000000 0.000000 0.000000
# 2 -0.005412 0.021190 -0.011740 0.000000 0.000000 0.000000
# 3 -0.011740 -0.011740 0.028844 0.000000 0.000000 0.000000
# 4 0.000000 0.000000 0.000000 0.041280 0.000000 0.000000
# 5 0.000000 0.000000 0.000000 0.000000 0.041280 0.000000
# 6 0.000000 0.000000 0.000000 0.000000 0.000000 0.107253
#
#
# Mechanical properties :
#
#
# Convention : Reuss Voigt Hill
#
# Bulk Modulus (GPa) = 74.40337 74.56529 74.48433
# Shear Modulus (GPa) = 15.46556 17.81049 16.63803
#
# Velocity S-wave (km/s) = 3.15252 3.38309 3.26984
# Velocity P-wave (km/s) = 7.81434 7.94841 7.88166
#
# Compressibility (1/GPa) = 0.01344025
#
# Stress axis : x y z
#
# Youngs Moduli (GPa) = 47.19214 47.19214 34.66975
#
# Poissons Ratio (x) = 0.25540 0.40702
# Poissons Ratio (y) = 0.25540 0.40702
# Poissons Ratio (z) = 0.55403 0.55403
#
# Static dielectric constant tensor:
#      x y z
#    x 1.499560 0.000000 0.000000 
#    y 0.000000 1.499560 0.000000 
#    z 0.000000 0.000000 1.531570 
# 
# From -- ./inp_files/8189.got.cif
#   From: 2010.05.17/outbox.cif.g08.bks.cpg/sg123_5_cif.got.tgz:8189.got - 2010.05.20 11:43:04.
