data_PCOD9562051
_publ_section_title
;
Structure prediction by ZEFSAII (Michael W. Deem and Ramdas Pophale) SiO2 
 PCOD9562051
Probable space group: P 4/M M M
;
_chemical_formula_sum "Si O2"
_cell_formula_units_Z 88
_cell_length_a 19.548635
_cell_length_b 19.548635
_cell_length_c 13.259917
_cell_angle_alpha 90.000000
_cell_angle_beta 90.000000
_cell_angle_gamma 90.000000
_cell_volume 5067.265750
_symmetry_space_group_name_H-M "P 4/M M M"
_symmetry_group_IT_number 123
_symmetry_cell_setting 'tetragonal'
loop_
_space_group_symop_operation_xyz
x,y,z
-y,x,z
-x,-y,z
y,-x,z
x,-y,-z
-x,y,-z
y,x,-z
-y,-x,-z
-x,-y,-z
y,-x,-z
x,y,-z
-y,x,-z
-x,y,z
x,-y,z
-y,-x,z
y,x,z
loop_
_atom_site_type_symbol
_atom_site_label
_atom_site_fract_x
_atom_site_fract_y
_atom_site_fract_z
Si Si1 0.695555 0.581691 0.500000
Si Si2 0.789219 0.418792 0.695374
Si Si3 0.922433 0.753292 0.887114
Si Si4 0.922308 0.654371 0.381258
Si Si5 0.078443 0.188168 0.327763
Si Si6 0.329127 0.785537 0.114138
O O1 0.681291 0.500000 0.500000
O O2 0.628146 0.628146 0.500000
O O3 0.740619 0.597362 0.400249
O O4 0.789903 0.500000 0.707952
O O5 0.864733 0.390955 0.670020
O O6 0.767155 0.381209 0.797712
O O7 0.916928 0.804834 0.793953
O O8 0.863605 0.696887 0.874821
O O9 0.000000 0.725140 0.881837
O O10 0.913447 0.782787 0.000000
O O11 0.921233 0.639596 0.500000
O O12 0.906970 0.735020 0.366201
O O13 0.000000 0.643115 0.343887
O O14 0.132831 0.132831 0.363682
O O15 0.000000 0.171517 0.355077
O O16 0.262323 0.737678 0.123611
O O17 0.356033 0.776972 0.000000
#
# Coordination Sequence:
#
# PCOD9562051 Si02
#       6
#     8  16  16  16  16  16
#     4  10  22  39  59  85 113 141 172 210 262 320
#     4  11  22  36  55  83 114 141 175 221 273 317
#     4   9  17  29  47  72 101 131 169 218 263 308
#     4  10  21  37  54  75 105 142 183 220 264 326
#     4  10  20  33  50  73 101 135 178 225 271 319
#     4  10  20  34  54  78 106 146 188 219 259 318
#
# _framework density 17.366367
#
# number of rings (size 3 to 8) (size 9 to 14) (size 15 to 20)
#    0.000    2.000    2.727    1.091    0.000    3.182 
#    0.000    0.909    0.000    0.000    0.000    8.909 
#    0.000    0.000    0.000   16.909    0.000    0.000 
#
# Total GULP energy -490787.320083 kJ/mol
# GULP energy per Si atom -5577.128637 kJ/mol
# Density = 1.732684 g / cm^3
# Si number density = 17.366367 Si / 1000 Ang^3
#
#
#
# Elastic Constant Matrix: (Units=GPa)
#
#
# Indices 1 2 3 4 5 6 
#
# 1 69.8576 53.4922 39.8244 0.0000 0.0000 0.0000
# 2 53.4922 69.8576 39.8244 0.0000 0.0000 0.0000
# 3 39.8244 39.8244 97.6392 0.0000 0.0000 0.0000
# 4 0.0000 0.0000 0.0000 18.8133 0.0000 0.0000
# 5 0.0000 0.0000 0.0000 0.0000 18.8133 0.0000
# 6 0.0000 0.0000 0.0000 0.0000 0.0000 25.3803
#
#
#
# Elastic Compliance Matrix: (Units=1/GPa)
#
#
# Indices 1 2 3 4 5 6 
#
# 1 0.036055 -0.025049 -0.004489 0.000000 0.000000 0.000000
# 2 -0.025049 0.036055 -0.004489 0.000000 0.000000 0.000000
# 3 -0.004489 -0.004489 0.013904 0.000000 0.000000 0.000000
# 4 0.000000 0.000000 0.000000 0.053154 0.000000 0.000000
# 5 0.000000 0.000000 0.000000 0.000000 0.053154 0.000000
# 6 0.000000 0.000000 0.000000 0.000000 0.000000 0.039401
#
#
# Mechanical properties :
#
#
# Convention : Reuss Voigt Hill
#
# Bulk Modulus (GPa) = 55.68178 55.95961 55.82069
# Shear Modulus (GPa) = 16.35256 19.54894 17.95075
#
# Velocity S-wave (km/s) = 3.07192 3.35875 3.21853
# Velocity P-wave (km/s) = 6.68691 6.88001 6.78415
#
# Compressibility (1/GPa) = 0.01795920
#
# Stress axis : x y z
#
# Youngs Moduli (GPa) = 27.73543 27.73543 71.92390
#
# Poissons Ratio (x) = 0.69476 0.32286
# Poissons Ratio (y) = 0.69476 0.32286
# Poissons Ratio (z) = 0.12450 0.12450
#
# Static dielectric constant tensor:
#      x y z
#    x 1.570540 0.000000 0.000000 
#    y 0.000000 1.570540 0.000000 
#    z 0.000000 0.000000 1.634540 
# 
# From -- ./inp_files/4042.got.cif
#   From: 2010.05.17/outbox.cif.g08.bks.cpg/sg123_3_cif.got.tgz:4042.got - 2010.05.20 11:43:04.
