data_PCOD9562123
_publ_section_title
;
Structure prediction by ZEFSAII (Michael W. Deem and Ramdas Pophale) SiO2 
 PCOD9562123
Probable space group: P 4/M M M
;
_chemical_formula_sum "Si O2"
_cell_formula_units_Z 56
_cell_length_a 18.607106
_cell_length_b 18.607106
_cell_length_c 7.536796
_cell_angle_alpha 90.000000
_cell_angle_beta 90.000000
_cell_angle_gamma 90.000000
_cell_volume 2609.422626
_symmetry_space_group_name_H-M "P 4/M M M"
_symmetry_group_IT_number 123
_symmetry_cell_setting 'tetragonal'
loop_
_space_group_symop_operation_xyz
x,y,z
-y,x,z
-x,-y,z
y,-x,z
x,-y,-z
-x,y,-z
y,x,-z
-y,-x,-z
-x,-y,-z
y,-x,-z
x,y,-z
-y,x,-z
-x,y,z
x,-y,z
-y,-x,z
y,x,z
loop_
_atom_site_type_symbol
_atom_site_label
_atom_site_fract_x
_atom_site_fract_y
_atom_site_fract_z
Si Si1 0.801107 0.198894 0.207666
Si Si2 0.303143 0.419637 0.286676
Si Si3 0.416983 0.000000 0.782752
Si Si4 0.647651 0.150745 0.787468
Si Si5 0.918475 0.081526 0.285597
O O1 0.829055 0.273718 0.284847
O O2 0.861443 0.138558 0.221075
O O3 0.786804 0.213197 0.000000
O O4 0.309401 0.420127 0.500000
O O5 0.321217 0.500000 0.222404
O O6 0.357118 0.357118 0.220378
O O7 0.220263 0.401566 0.245493
O O8 0.380721 0.925832 0.720867
O O9 0.500000 0.000000 0.730846
O O10 0.414879 0.000000 0.000000
O O11 0.652788 0.142374 0.000000
O O12 0.917695 0.082306 0.500000
O O13 0.000000 0.098414 0.228798
#
# Coordination Sequence:
#
# PCOD9562123 Si02
#       5
#     8  16   8  16   8
#     4  10  21  33  53  82 109 139 180 230 276 321
#     4  10  21  37  57  81 110 144 182 226 275 327
#     4   9  18  32  53  79 106 139 174 212 261 319
#     4  10  20  36  56  80 109 142 181 222 269 326
#     4   9  20  38  56  76 106 145 187 227 270 324
#
# _framework density 21.460685999999999
#
# number of rings (size 3 to 8) (size 9 to 14) (size 15 to 20)
#    0.000    2.286    1.429    1.286    2.000    3.714 
#    0.000    2.857    0.000    2.571    0.000    2.000 
#    0.000    0.000    0.000    0.000    0.000    0.000 
#
# Total GULP energy -312763.887956 kJ/mol
# GULP energy per Si atom -5585.069428 kJ/mol
# Density = 2.141184 g / cm^3
# Si number density = 21.460686 Si / 1000 Ang^3
#
#
#
# Elastic Constant Matrix: (Units=GPa)
#
#
# Indices 1 2 3 4 5 6 
#
# 1 171.5852 116.9521 4.9738 0.0000 0.0000 0.0000
# 2 116.9521 171.5850 4.9731 0.0000 0.0000 0.0000
# 3 4.9738 4.9731 52.4279 0.0000 0.0000 0.0000
# 4 0.0000 0.0000 0.0000 12.3136 0.0000 0.0000
# 5 0.0000 0.0000 0.0000 0.0000 12.3138 0.0000
# 6 0.0000 0.0000 0.0000 0.0000 0.0000 30.4795
#
#
#
# Elastic Compliance Matrix: (Units=1/GPa)
#
#
# Indices 1 2 3 4 5 6 
#
# 1 0.010891 -0.007413 -0.000330 0.000000 0.000000 0.000000
# 2 -0.007413 0.010891 -0.000330 0.000000 0.000000 0.000000
# 3 -0.000330 -0.000330 0.019136 0.000000 0.000000 0.000000
# 4 0.000000 0.000000 0.000000 0.081211 0.000000 0.000000
# 5 0.000000 0.000000 0.000000 0.000000 0.081210 0.000000
# 6 0.000000 0.000000 0.000000 0.000000 0.000000 0.032809
#
#
# Mechanical properties :
#
#
# Convention : Reuss Voigt Hill
#
# Bulk Modulus (GPa) = 40.36940 72.15514 56.26227
# Shear Modulus (GPa) = 19.19014 28.93465 24.06240
#
# Velocity S-wave (km/s) = 2.99356 3.67585 3.35211
# Velocity P-wave (km/s) = 5.54980 7.19103 6.42305
#
# Compressibility (1/GPa) = 0.02477124
#
# Stress axis : x y z
#
# Youngs Moduli (GPa) = 91.82274 91.82269 52.25648
#
# Poissons Ratio (x) = 0.68072 0.01724
# Poissons Ratio (y) = 0.68072 0.01723
# Poissons Ratio (z) = 0.03030 0.03028
#
# Static dielectric constant tensor:
#      x y z
#    x 1.755260 0.000000 0.000000 
#    y 0.000000 1.755260 0.000000 
#    z 0.000000 0.000000 1.802660 
# 
# From -- ./inp_files/640.got.cif
#   From: 2010.05.17/outbox.cif.g08.bks.cpg/sg123_1_cif.got.tgz:640.got - 2010.05.20 11:43:04.
