data_PCOD9562715
_publ_section_title
;
Structure prediction by ZEFSAII (Michael W. Deem and Ramdas Pophale) SiO2 
 PCOD9562715
Probable space group: P 4/M C C
;
_chemical_formula_sum "Si O2"
_cell_formula_units_Z 88
_cell_length_a 16.649046
_cell_length_b 16.649046
_cell_length_c 14.334250
_cell_angle_alpha 90.000000
_cell_angle_beta 90.000000
_cell_angle_gamma 90.000000
_cell_volume 3973.321260
_symmetry_space_group_name_H-M "P 4/M C C"
_symmetry_group_IT_number 124
_symmetry_cell_setting 'tetragonal'
loop_
_space_group_symop_operation_xyz
x,y,z
-y,x,z
-x,-y,z
y,-x,z
x,-y,1/2-z
-x,y,1/2-z
y,x,1/2-z
-y,-x,1/2-z
-x,-y,-z
y,-x,-z
x,y,-z
-y,x,-z
-x,y,1/2+z
x,-y,1/2+z
-y,-x,1/2+z
y,x,1/2+z
loop_
_atom_site_type_symbol
_atom_site_label
_atom_site_fract_x
_atom_site_fract_y
_atom_site_fract_z
Si Si1 0.299537 0.416910 0.303744
Si Si2 0.379684 0.443517 0.500000
Si Si3 0.956439 0.121901 0.613988
Si Si4 0.146680 0.727340 0.611966
Si Si5 0.095576 0.597066 0.757953
Si Si6 0.174559 0.687866 0.110842
O O1 0.306540 0.500000 0.250000
O O2 0.350622 0.350622 0.250000
O O3 0.335067 0.423202 0.406473
O O4 0.211656 0.385338 0.326729
O O5 0.462914 0.397483 0.500000
O O6 0.956293 0.121536 0.500000
O O7 0.918659 0.206079 0.641039
O O8 0.046922 0.100125 0.643025
O O9 0.143386 0.713735 0.500000
O O10 0.133994 0.646172 0.669170
O O11 0.232901 0.772783 0.629293
O O12 0.121253 0.500000 0.750000
O O13 0.090866 0.669683 0.842106
O O14 0.000000 0.586743 0.750000
O O15 0.174620 0.675918 0.000000
#
# Coordination Sequence:
#
# PCOD9562715 Si02
#       6
#    16   8  16  16  16  16
#     4  12  23  38  63  92 130 175 217 283 346 410
#     4  11  22  38  58  96 134 169 223 264 337 428
#     4   8  15  30  58 101 145 178 211 259 334 419
#     4  10  22  41  70 104 137 180 230 288 351 421
#     4  11  26  47  68  97 137 183 237 293 351 419
#     4  11  25  45  69  97 130 171 232 289 354 419
#
# _framework density 22.147717
#
# number of rings (size 3 to 8) (size 9 to 14) (size 15 to 20)
#    0.000    1.545    2.727    2.727    2.545    1.636 
#    0.000    3.636    0.000    0.000    0.000    0.000 
#    0.000    0.000    0.000    0.000    0.000    0.000 
#
# Total GULP energy -490125.037185 kJ/mol
# GULP energy per Si atom -5569.602695 kJ/mol
# Density = 2.209731 g / cm^3
# Si number density = 22.147717 Si / 1000 Ang^3
#
#
#
# Elastic Constant Matrix: (Units=GPa)
#
#
# Indices 1 2 3 4 5 6 
#
# 1 63.6259 55.5536 40.8124 0.0000 0.0000 0.0000
# 2 55.5536 63.6259 40.8124 0.0000 0.0000 0.0000
# 3 40.8124 40.8124 131.2395 0.0000 0.0000 0.0000
# 4 0.0000 0.0000 0.0000 18.9800 0.0000 0.0000
# 5 0.0000 0.0000 0.0000 0.0000 18.9800 0.0000
# 6 0.0000 0.0000 0.0000 0.0000 0.0000 48.3423
#
#
#
# Elastic Compliance Matrix: (Units=1/GPa)
#
#
# Indices 1 2 3 4 5 6 
#
# 1 0.067271 -0.056610 -0.003315 0.000000 0.000000 0.000000
# 2 -0.056610 0.067271 -0.003315 0.000000 0.000000 0.000000
# 3 -0.003315 -0.003315 0.009682 0.000000 0.000000 0.000000
# 4 0.000000 0.000000 0.000000 0.052687 0.000000 0.000000
# 5 0.000000 0.000000 0.000000 0.000000 0.052687 0.000000
# 6 0.000000 0.000000 0.000000 0.000000 0.000000 0.020686
#
#
# Mechanical properties :
#
#
# Convention : Reuss Voigt Hill
#
# Bulk Modulus (GPa) = 56.36106 59.20536 57.78321
# Shear Modulus (GPa) = 12.41681 25.34796 18.88239
#
# Velocity S-wave (km/s) = 2.37034 3.38671 2.92304
# Velocity P-wave (km/s) = 5.74408 6.48715 6.12689
#
# Compressibility (1/GPa) = 0.01774275
#
# Stress axis : x y z
#
# Youngs Moduli (GPa) = 14.86521 14.86521 103.28742
#
# Poissons Ratio (x) = 0.84152 0.34245
# Poissons Ratio (y) = 0.84152 0.34245
# Poissons Ratio (z) = 0.04928 0.04928
#
# Static dielectric constant tensor:
#      x y z
#    x 1.745030 0.000000 0.000000 
#    y 0.000000 1.745030 0.000000 
#    z 0.000000 0.000000 1.752390 
# 
# From -- ./inp_files/3200.got.cif
#   From: 2010.05.17/outbox.cif.g08.bks.cpg/sg124_2_cif.got.tgz:3200.got - 2010.05.20 11:49:17.
