data_PCOD9562578
_publ_section_title
;
Structure prediction by ZEFSAII (Michael W. Deem and Ramdas Pophale) SiO2 
 PCOD9562578
Probable space group: P 4/M C C
;
_chemical_formula_sum "Si O2"
_cell_formula_units_Z 120
_cell_length_a 21.176750
_cell_length_b 21.176750
_cell_length_c 14.293031
_cell_angle_alpha 90.000000
_cell_angle_beta 90.000000
_cell_angle_gamma 90.000000
_cell_volume 6409.777509
_symmetry_space_group_name_H-M "P 4/M C C"
_symmetry_group_IT_number 124
_symmetry_cell_setting 'tetragonal'
loop_
_space_group_symop_operation_xyz
x,y,z
-y,x,z
-x,-y,z
y,-x,z
x,-y,1/2-z
-x,y,1/2-z
y,x,1/2-z
-y,-x,1/2-z
-x,-y,-z
y,-x,-z
x,y,-z
-y,x,-z
-x,y,1/2+z
x,-y,1/2+z
-y,-x,1/2+z
y,x,1/2+z
loop_
_atom_site_type_symbol
_atom_site_label
_atom_site_fract_x
_atom_site_fract_y
_atom_site_fract_z
Si Si1 0.987668 0.249249 0.392228
Si Si2 0.074843 0.569206 0.742219
Si Si3 0.674184 0.888865 0.887788
Si Si4 0.335500 0.432282 0.301552
Si Si5 0.873561 0.664789 0.110609
Si Si6 0.995907 0.898946 0.137788
Si Si7 0.332500 0.228950 0.229718
Si Si8 0.540286 0.599760 0.000000
O O1 0.986385 0.268566 0.500000
O O2 0.053524 0.279213 0.357533
O O3 0.990251 0.173939 0.387167
O O4 0.922145 0.279551 0.356975
O O5 0.102789 0.500000 0.750000
O O6 0.098294 0.610865 0.829030
O O7 0.090659 0.601653 0.643580
O O8 0.000000 0.566728 0.750000
O O9 0.691523 0.819496 0.850137
O O10 0.667726 0.889119 0.000000
O O11 0.332194 0.500000 0.250000
O O12 0.387090 0.387090 0.250000
O O13 0.268157 0.395626 0.296695
O O14 0.360527 0.443474 0.406947
O O15 0.811990 0.662532 0.175317
O O16 0.861169 0.668554 0.000000
O O17 0.936234 0.941165 0.106549
O O18 0.000000 0.900843 0.250000
O O19 0.280639 0.280639 0.250000
O O20 0.466285 0.579440 0.000000
#
# Coordination Sequence:
#
# PCOD9562578 Si02
#       8
#    16  16  16  16  16  16  16   8
#     4  10  21  37  61  87 112 151 203 260 319 369
#     4  10  20  35  60  90 117 146 190 246 313 375
#     4  10  22  40  61  88 121 158 208 264 307 369
#     4  11  23  44  66  97 138 174 215 264 312 380
#     4  10  22  42  63  87 121 160 211 267 316 377
#     4   9  20  36  54  83 118 152 189 238 312 392
#     4  10  25  42  61  88 124 172 215 250 307 372
#     4  11  22  38  74 114 136 172 215 265 329 370
#
# _framework density 18.721398000000001
#
# number of rings (size 3 to 8) (size 9 to 14) (size 15 to 20)
#    0.000    1.933    2.667    0.400    4.667    4.933 
#    4.800    4.667    0.000    0.000    0.000    0.000 
#    0.000    0.000    0.000    0.000    0.000    0.000 
#
# Total GULP energy -668670.637575 kJ/mol
# GULP energy per Si atom -5572.255313 kJ/mol
# Density = 1.867879 g / cm^3
# Si number density = 18.721398 Si / 1000 Ang^3
#
#
#
# Elastic Constant Matrix: (Units=GPa)
#
#
# Indices 1 2 3 4 5 6 
#
# 1 124.2543 53.9491 35.8475 0.0000 0.0000 0.0000
# 2 53.9491 124.2543 35.8475 0.0000 0.0000 0.0000
# 3 35.8475 35.8475 141.7972 0.0000 0.0000 0.0000
# 4 0.0000 0.0000 0.0000 31.8820 0.0000 0.0000
# 5 0.0000 0.0000 0.0000 0.0000 31.8820 0.0000
# 6 0.0000 0.0000 0.0000 0.0000 0.0000 -1.1565
#
#
#
# Elastic Compliance Matrix: (Units=1/GPa)
#
#
# Indices 1 2 3 4 5 6 
#
# 1 0.010235 -0.003988 -0.001579 0.000000 0.000000 0.000000
# 2 -0.003988 0.010235 -0.001579 0.000000 0.000000 0.000000
# 3 -0.001579 -0.001579 0.007851 0.000000 0.000000 0.000000
# 4 0.000000 0.000000 0.000000 0.031366 0.000000 0.000000
# 5 0.000000 0.000000 0.000000 0.000000 0.031366 0.000000
# 6 0.000000 0.000000 0.000000 0.000000 0.000000 -0.864677
#
#
# Mechanical properties :
#
#
# Convention : Reuss Voigt Hill
#
# Bulk Modulus (GPa) = 71.28799 71.28821 71.28810
# Shear Modulus (GPa) = -6.62555 30.16560 11.77003
#
# Velocity S-wave (km/s) = -1.88327 4.01844 2.51010
# Velocity P-wave (km/s) = 5.78205 7.72604 6.82362
#
# Compressibility (1/GPa) = 0.01402761
#
# Stress axis : x y z
#
# Youngs Moduli (GPa) = 97.70084 97.70084 127.37497
#
# Poissons Ratio (x) = 0.38967 0.20116
# Poissons Ratio (y) = 0.38967 0.20116
# Poissons Ratio (z) = 0.15430 0.15430
#
# Static dielectric constant tensor:
#      x y z
#    x 1.690810 0.000000 0.000000 
#    y 0.000000 1.690810 0.000000 
#    z 0.000000 0.000000 1.661420 
# 
# From -- ./inp_files/3491.got.cif
#   From: 2010.05.17/outbox.cif.g08.bks.cpg/sg124_2_cif.got.tgz:3491.got - 2010.05.20 11:49:17.
