data_PCOD9562267
_publ_section_title
;
Structure prediction by ZEFSAII (Michael W. Deem and Ramdas Pophale) SiO2 
 PCOD9562267
Probable space group: P 4/M M M
;
_chemical_formula_sum "Si O2"
_cell_formula_units_Z 64
_cell_length_a 20.585389
_cell_length_b 20.585389
_cell_length_c 7.411155
_cell_angle_alpha 90.000000
_cell_angle_beta 90.000000
_cell_angle_gamma 90.000000
_cell_volume 3140.538001
_symmetry_space_group_name_H-M "P 4/M M M"
_symmetry_group_IT_number 123
_symmetry_cell_setting 'tetragonal'
loop_
_space_group_symop_operation_xyz
x,y,z
-y,x,z
-x,-y,z
y,-x,z
x,-y,-z
-x,y,-z
y,x,-z
-y,-x,-z
-x,-y,-z
y,-x,-z
x,y,-z
-y,x,-z
-x,y,z
x,-y,z
-y,-x,z
y,x,z
loop_
_atom_site_type_symbol
_atom_site_label
_atom_site_fract_x
_atom_site_fract_y
_atom_site_fract_z
Si Si1 0.358505 0.102683 0.784883
Si Si2 0.095487 0.500000 0.208350
Si Si3 0.744192 0.358625 0.716524
Si Si4 0.000000 0.894939 0.780084
Si Si5 0.500000 0.248217 0.719141
Si Si6 0.000000 0.253908 0.220680
O O1 0.429118 0.079360 0.712460
O O2 0.350298 0.179504 0.755823
O O3 0.296921 0.061780 0.721073
O O4 0.362255 0.092642 0.000000
O O5 0.173957 0.500000 0.214246
O O6 0.074045 0.500000 0.000000
O O7 0.738936 0.358437 0.500000
O O8 0.698451 0.301550 0.787264
O O9 0.723342 0.430939 0.777963
O O10 0.063125 0.936876 0.725421
O O11 0.000000 0.820566 0.718291
O O12 0.000000 0.894207 0.000000
O O13 0.500000 0.246241 0.500000
O O14 0.000000 0.251391 0.000000
#
# Coordination Sequence:
#
# PCOD9562267 Si02
#       6
#    16   8  16   8   8   8
#     4   9  17  28  42  62  87 113 141 172 208 250
#     4   8  14  25  40  58  83 113 140 166 200 247
#     4   9  17  29  45  64  86 113 145 179 214 254
#     4   8  14  25  39  53  73 104 136 164 201 248
#     4   8  14  26  43  60  81 112 145 174 208 252
#     4   9  17  27  40  62  87 108 136 175 212 244
#
# _framework density 20.378675000000001
#
# number of rings (size 3 to 8) (size 9 to 14) (size 15 to 20)
#    0.000    3.375    0.000    0.375    0.000    2.000 
#    0.000    5.625    0.000    0.375    0.000   11.375 
#    0.000    0.000    0.000   23.875    0.000   17.250 
#
# Total GULP energy -356585.790391 kJ/mol
# GULP energy per Si atom -5571.652975 kJ/mol
# Density = 2.033229 g / cm^3
# Si number density = 20.378675 Si / 1000 Ang^3
#
#
#
# Elastic Constant Matrix: (Units=GPa)
#
#
# Indices 1 2 3 4 5 6 
#
# 1 183.5995 113.5923 4.5336 0.0000 0.0000 0.0000
# 2 113.5923 183.5995 4.5336 0.0000 0.0000 0.0000
# 3 4.5336 4.5336 68.6031 0.0000 0.0000 0.0000
# 4 0.0000 0.0000 0.0000 2.0152 0.0000 0.0000
# 5 0.0000 0.0000 0.0000 0.0000 2.0152 0.0000
# 6 0.0000 0.0000 0.0000 0.0000 0.0000 71.0746
#
#
#
# Elastic Compliance Matrix: (Units=1/GPa)
#
#
# Indices 1 2 3 4 5 6 
#
# 1 0.008828 -0.005456 -0.000223 0.000000 0.000000 0.000000
# 2 -0.005456 0.008828 -0.000223 0.000000 0.000000 0.000000
# 3 -0.000223 -0.000223 0.014606 0.000000 0.000000 0.000000
# 4 0.000000 0.000000 0.000000 0.496231 0.000000 0.000000
# 5 0.000000 0.000000 0.000000 0.000000 0.496231 0.000000
# 6 0.000000 0.000000 0.000000 0.000000 0.000000 0.014070
#
#
# Mechanical properties :
#
#
# Convention : Reuss Voigt Hill
#
# Bulk Modulus (GPa) = 48.88050 75.68014 62.28032
# Shear Modulus (GPa) = 4.72850 35.89716 20.31283
#
# Velocity S-wave (km/s) = 1.52491 4.20158 3.16059
# Velocity P-wave (km/s) = 5.20948 7.79457 6.62925
#
# Compressibility (1/GPa) = 0.02045805
#
# Stress axis : x y z
#
# Youngs Moduli (GPa) = 113.27669 113.27669 68.46475
#
# Poissons Ratio (x) = 0.61807 0.01525
# Poissons Ratio (y) = 0.61807 0.01525
# Poissons Ratio (z) = 0.02524 0.02524
#
# Static dielectric constant tensor:
#      x y z
#    x 1.732920 0.000000 0.000000 
#    y 0.000000 1.732920 0.000000 
#    z 0.000000 0.000000 1.767590 
# 
# From -- ./inp_files/1013.got.cif
#   From: 2010.05.17/outbox.cif.g08.bks.cpg/sg123_1_cif.got.tgz:1013.got - 2010.05.20 11:43:04.
