data_PCOD9562500
_publ_section_title
;
Structure prediction by ZEFSAII (Michael W. Deem and Ramdas Pophale) SiO2 
 PCOD9562500
Probable space group: P 4/M C C
;
_chemical_formula_sum "Si O2"
_cell_formula_units_Z 96
_cell_length_a 25.581323
_cell_length_b 25.581323
_cell_length_c 8.880722
_cell_angle_alpha 90.000000
_cell_angle_beta 90.000000
_cell_angle_gamma 90.000000
_cell_volume 5811.580767
_symmetry_space_group_name_H-M "P 4/M C C"
_symmetry_group_IT_number 124
_symmetry_cell_setting 'tetragonal'
loop_
_space_group_symop_operation_xyz
x,y,z
-y,x,z
-x,-y,z
y,-x,z
x,-y,1/2-z
-x,y,1/2-z
y,x,1/2-z
-y,-x,1/2-z
-x,-y,-z
y,-x,-z
x,y,-z
-y,x,-z
-x,y,1/2+z
x,-y,1/2+z
-y,-x,1/2+z
y,x,1/2+z
loop_
_atom_site_type_symbol
_atom_site_label
_atom_site_fract_x
_atom_site_fract_y
_atom_site_fract_z
Si Si1 0.245214 0.833585 0.819335
Si Si2 0.447465 0.630452 0.820485
Si Si3 0.745551 0.552502 0.680554
Si Si4 0.248368 0.946014 0.327525
Si Si5 0.248638 0.326279 0.319277
Si Si6 0.877107 0.948253 0.167933
O O1 0.192367 0.807634 0.750000
O O2 0.256907 0.892288 0.762887
O O3 0.290938 0.795865 0.757445
O O4 0.241900 0.831992 0.000000
O O5 0.500000 0.606275 0.750000
O O6 0.399025 0.600976 0.750000
O O7 0.446126 0.689482 0.761702
O O8 0.448103 0.628303 0.000000
O O9 0.772315 0.500000 0.750000
O O10 0.740441 0.545368 0.500000
O O11 0.764125 0.612329 0.705866
O O12 0.267471 0.941923 0.500000
O O13 0.185360 0.950190 0.333970
O O14 0.267211 0.000000 0.250000
O O15 0.303064 0.303064 0.250000
O O16 0.250214 0.317807 0.500000
O O17 0.897318 0.897318 0.250000
O O18 0.896520 0.000000 0.250000
O O19 0.897297 0.947322 0.000000
#
# Coordination Sequence:
#
# PCOD9562500 Si02
#       6
#    16  16  16  16  16  16
#     4  11  21  33  51  74 101 133 167 205 249 295
#     4  11  21  33  47  63  84 112 149 191 236 282
#     4  10  20  33  50  71  95 125 159 196 239 287
#     4  10  20  34  51  71  96 125 158 196 238 288
#     4  10  20  33  50  73 100 131 166 204 247 294
#     4  10  20  32  46  62  82 110 146 188 232 276
#
# _framework density 16.518740999999999
#
# number of rings (size 3 to 8) (size 9 to 14) (size 15 to 20)
#    0.000    1.667    0.000    8.000    0.000    7.667 
#    0.000    1.667    0.000    0.000    0.000    0.000 
#    0.000    0.667    0.000    7.000    0.000    3.833 
#
# Total GULP energy -535156.182594 kJ/mol
# GULP energy per Si atom -5574.543569 kJ/mol
# Density = 1.648114 g / cm^3
# Si number density = 16.518741 Si / 1000 Ang^3
#
#
#
# Elastic Constant Matrix: (Units=GPa)
#
#
# Indices 1 2 3 4 5 6 
#
# 1 78.1996 22.9051 44.3486 0.0000 0.0000 0.0000
# 2 22.9051 78.2010 44.3455 0.0000 0.0000 0.0000
# 3 44.3486 44.3455 150.1630 0.0000 0.0000 0.0000
# 4 0.0000 0.0000 0.0000 34.6094 0.0000 0.0000
# 5 0.0000 0.0000 0.0000 0.0000 34.6042 0.0000
# 6 0.0000 0.0000 0.0000 0.0000 0.0000 17.8735
#
#
#
# Elastic Compliance Matrix: (Units=1/GPa)
#
#
# Indices 1 2 3 4 5 6 
#
# 1 0.015717 -0.002368 -0.003943 0.000000 0.000000 0.000000
# 2 -0.002368 0.015717 -0.003942 0.000000 0.000000 0.000000
# 3 -0.003943 -0.003942 0.008988 0.000000 0.000000 0.000000
# 4 0.000000 0.000000 0.000000 0.028894 0.000000 0.000000
# 5 0.000000 0.000000 0.000000 0.000000 0.028898 0.000000
# 6 0.000000 0.000000 0.000000 0.000000 0.000000 0.055949
#
#
# Mechanical properties :
#
#
# Convention : Reuss Voigt Hill
#
# Bulk Modulus (GPa) = 50.20892 58.86243 54.53568
# Shear Modulus (GPa) = 27.57763 30.41506 28.99635
#
# Velocity S-wave (km/s) = 4.09035 4.29563 4.19425
# Velocity P-wave (km/s) = 7.26423 7.76623 7.51942
#
# Compressibility (1/GPa) = 0.01991678
#
# Stress axis : x y z
#
# Youngs Moduli (GPa) = 63.62424 63.62739 111.25984
#
# Poissons Ratio (x) = 0.15066 0.43866
# Poissons Ratio (y) = 0.15065 0.43859
# Poissons Ratio (z) = 0.25085 0.25082
#
# Static dielectric constant tensor:
#      x y z
#    x 1.340380 0.000000 0.000000 
#    y 0.000000 1.340160 0.000000 
#    z 0.000000 0.000000 1.563080 
# 
# From -- ./inp_files/1514.got.cif
#   From: 2010.05.17/outbox.cif.g08.bks.cpg/sg124_1_cif.got.tgz:1514.got - 2010.05.20 11:49:17.
