data_PCOD9563944
_publ_section_title
;
Structure prediction by ZEFSAII (Michael W. Deem and Ramdas Pophale) SiO2 
 PCOD9563944
Probable space group: P 4/M B M
;
_chemical_formula_sum "Si O2"
_cell_formula_units_Z 104
_cell_length_a 16.293042
_cell_length_b 16.293042
_cell_length_c 21.576195
_cell_angle_alpha 90.000000
_cell_angle_beta 90.000000
_cell_angle_gamma 90.000000
_cell_volume 5727.686149
_symmetry_space_group_name_H-M "P 4/M B M"
_symmetry_group_IT_number 127
_symmetry_cell_setting 'tetragonal'
loop_
_space_group_symop_operation_xyz
x,y,z
-y,x,z
-x,-y,z
y,-x,z
1/2+x,1/2-y,-z
1/2-x,1/2+y,-z
1/2+y,1/2+x,-z
1/2-y,1/2-x,-z
-x,-y,-z
y,-x,-z
x,y,-z
-y,x,-z
1/2-x,1/2+y,z
1/2+x,1/2-y,z
1/2-y,1/2-x,z
1/2+y,1/2+x,z
loop_
_atom_site_type_symbol
_atom_site_label
_atom_site_fract_x
_atom_site_fract_y
_atom_site_fract_z
Si Si1 0.219904 0.580508 0.929665
Si Si2 0.138347 0.984273 0.500000
Si Si3 0.193705 0.445568 0.837233
Si Si4 0.815166 0.824190 0.167216
Si Si5 0.995295 0.367272 0.710366
Si Si6 0.725281 0.516219 0.368758
Si Si7 0.165720 0.808913 0.313097
O O1 0.153898 0.653898 0.931891
O O2 0.178464 0.504700 0.894631
O O3 0.292350 0.608203 0.883328
O O4 0.245519 0.562701 0.000000
O O5 0.087435 0.069683 0.500000
O O6 0.193058 0.978743 0.561510
O O7 0.124962 0.375039 0.835445
O O8 0.281041 0.401946 0.843804
O O9 0.187807 0.492101 0.771429
O O10 0.746786 0.753214 0.159338
O O11 0.809744 0.847605 0.239160
O O12 0.904859 0.404859 0.710353
O O13 0.059714 0.440287 0.717472
O O14 0.015578 0.321278 0.647160
O O15 0.694569 0.599787 0.334529
O O16 0.702383 0.424630 0.343413
O O17 0.237598 0.737598 0.325964
#
# Coordination Sequence:
#
# PCOD9563944 Si02
#       7
#    16   8  16  16  16  16  16
#     4  10  21  35  52  78 114 154 194 242 304 368
#     4  11  24  44  62  87 122 162 210 255 304 364
#     4  10  19  34  58  85 113 149 197 252 306 366
#     4   9  19  36  56  81 113 147 193 246 293 352
#     4  10  20  36  60  90 125 161 199 254 323 383
#     4  12  22  40  65  91 124 164 205 255 315 371
#     4  11  23  39  64  97 126 158 208 263 317 376
#
# _framework density 18.157419999999998
#
# number of rings (size 3 to 8) (size 9 to 14) (size 15 to 20)
#    0.000    1.615    3.077    2.308    0.000    3.385 
#    0.000    6.154    0.000    1.385    0.000    1.077 
#    0.000    0.000    0.000    0.000    0.000    0.000 
#
# Total GULP energy -579231.756929 kJ/mol
# GULP energy per Si atom -5569.536124 kJ/mol
# Density = 1.811609 g / cm^3
# Si number density = 18.157420 Si / 1000 Ang^3
#
#
#
# Elastic Constant Matrix: (Units=GPa)
#
#
# Indices 1 2 3 4 5 6 
#
# 1 78.0200 21.8677 36.1893 0.0000 0.0000 0.0000
# 2 21.8677 78.0200 36.1893 0.0000 0.0000 0.0000
# 3 36.1893 36.1893 130.8630 0.0000 0.0000 0.0000
# 4 0.0000 0.0000 0.0000 24.2799 0.0000 0.0000
# 5 0.0000 0.0000 0.0000 0.0000 24.2799 0.0000
# 6 0.0000 0.0000 0.0000 0.0000 0.0000 17.7160
#
#
#
# Elastic Compliance Matrix: (Units=1/GPa)
#
#
# Indices 1 2 3 4 5 6 
#
# 1 0.015164 -0.002644 -0.003462 0.000000 0.000000 0.000000
# 2 -0.002644 0.015164 -0.003462 0.000000 0.000000 0.000000
# 3 -0.003462 -0.003462 0.009557 0.000000 0.000000 0.000000
# 4 0.000000 0.000000 0.000000 0.041186 0.000000 0.000000
# 5 0.000000 0.000000 0.000000 0.000000 0.041186 0.000000
# 6 0.000000 0.000000 0.000000 0.000000 0.000000 0.056446
#
#
# Mechanical properties :
#
#
# Convention : Reuss Voigt Hill
#
# Bulk Modulus (GPa) = 48.19900 52.82171 50.51035
# Shear Modulus (GPa) = 24.41907 26.09893 25.25900
#
# Velocity S-wave (km/s) = 3.67120 3.79538 3.73381
# Velocity P-wave (km/s) = 6.67630 6.95418 6.81666
#
# Compressibility (1/GPa) = 0.02074732
#
# Stress axis : x y z
#
# Youngs Moduli (GPa) = 65.94400 65.94400 104.64029
#
# Poissons Ratio (x) = 0.17438 0.36230
# Poissons Ratio (y) = 0.17438 0.36230
# Poissons Ratio (z) = 0.22832 0.22832
#
# Static dielectric constant tensor:
#      x y z
#    x 1.669750 0.000000 0.000000 
#    y 0.000000 1.669750 0.000000 
#    z 0.000000 0.000000 1.596140 
# 
# From -- ./inp_files/5234.got.cif
#   From: 2010.05.17/outbox.cif.g08.bks.cpg/sg127_3_cif.got.tgz:5234.got - 2010.05.20 12:03:00.
