data_PCOD9563512
_publ_section_title
;
Structure prediction by ZEFSAII (Michael W. Deem and Ramdas Pophale) SiO2 
 PCOD9563512
Probable space group: P 4/N N C
;
_chemical_formula_sum "Si O2"
_cell_formula_units_Z 48
_cell_length_a 19.728367
_cell_length_b 19.728367
_cell_length_c 5.087262
_cell_angle_alpha 90.000000
_cell_angle_beta 90.000000
_cell_angle_gamma 90.000000
_cell_volume 1980.005431
_symmetry_space_group_name_H-M "P 4/N N C"
_symmetry_group_IT_number 126
_space_group.IT_coordinate_system_code '2'
_symmetry_cell_setting 'tetragonal'
loop_
_space_group_symop_operation_xyz
x,y,z
1/2-y,x,z
1/2-x,1/2-y,z
y,1/2-x,z
x,1/2-y,1/2-z
1/2-x,y,1/2-z
y,x,1/2-z
1/2-y,1/2-x,1/2-z
-x,-y,-z
1/2+y,-x,-z
1/2+x,1/2+y,-z
-y,1/2+x,-z
-x,1/2+y,1/2+z
1/2+x,-y,1/2+z
-y,-x,1/2+z
1/2+y,1/2+x,1/2+z
loop_
_atom_site_type_symbol
_atom_site_label
_atom_site_fract_x
_atom_site_fract_y
_atom_site_fract_z
Si Si1 0.411376 0.846068 0.147146
Si Si2 0.750000 0.032819 0.750000
Si Si3 0.668577 0.668577 0.250000
Si Si4 0.544664 0.874579 0.901924
O O1 0.382220 0.862609 0.431617
O O2 0.423895 0.773595 0.001083
O O3 0.486596 0.877716 0.121146
O O4 0.814659 0.984026 0.713970
O O5 0.750000 0.658563 0.250000
O O6 0.617340 0.645520 0.479775
O O7 0.556367 0.943634 0.750000
#
# Coordination Sequence:
#
# PCOD9563512 Si02
#       4
#    16   8   8  16
#     4  10  24  43  70 104 135 184 236 289 360 425
#     4   8  22  42  64  98 140 186 220 306 342 424
#     4  11  24  38  62  96 140 192 246 284 345 430
#     4  10  22  39  65  94 133 181 224 289 347 413
#
# _framework density 24.242355
#
# number of rings (size 3 to 8) (size 9 to 14) (size 15 to 20)
#    2.000    0.167    0.000    2.000    4.667    2.667 
#    0.000    1.667    0.000    3.000    0.000    0.000 
#    0.000    0.000    0.000    0.000    0.000    0.000 
#
# Total GULP energy -267268.416318 kJ/mol
# GULP energy per Si atom -5568.092007 kJ/mol
# Density = 2.418718 g / cm^3
# Si number density = 24.242355 Si / 1000 Ang^3
#
#
#
# Elastic Constant Matrix: (Units=GPa)
#
#
# Indices 1 2 3 4 5 6 
#
# 1 78.0594 61.0987 30.5707 0.0000 0.0000 0.0000
# 2 61.0987 78.0556 30.5696 0.0000 0.0000 0.0000
# 3 30.5707 30.5696 92.7922 0.0000 0.0000 0.0000
# 4 0.0000 0.0000 0.0000 -106.5765 0.0000 0.0000
# 5 0.0000 0.0000 0.0000 0.0000 -106.5557 0.0000
# 6 0.0000 0.0000 0.0000 0.0000 0.0000 72.5612
#
#
#
# Elastic Compliance Matrix: (Units=1/GPa)
#
#
# Indices 1 2 3 4 5 6 
#
# 1 0.033684 -0.025282 -0.002768 0.000000 0.000000 0.000000
# 2 -0.025282 0.033685 -0.002768 0.000000 0.000000 0.000000
# 3 -0.002768 -0.002768 0.012601 0.000000 0.000000 0.000000
# 4 0.000000 0.000000 0.000000 -0.009383 0.000000 0.000000
# 5 0.000000 0.000000 0.000000 0.000000 -0.009385 0.000000
# 6 0.000000 0.000000 0.000000 0.000000 0.000000 0.013781
#
#
# Mechanical properties :
#
#
# Convention : Reuss Voigt Hill
#
# Bulk Modulus (GPa) = 54.54677 54.82056 54.68366
# Shear Modulus (GPa) = 35.03093 -19.66965 7.68064
#
# Velocity S-wave (km/s) = 3.80548 -2.85156 1.78190
# Velocity P-wave (km/s) = 6.46980 3.43814 5.18069
#
# Compressibility (1/GPa) = 0.01833289
#
# Stress axis : x y z
#
# Youngs Moduli (GPa) = 29.68797 29.68662 79.36076
#
# Poissons Ratio (x) = 0.75054 0.21969
# Poissons Ratio (y) = 0.75057 0.21968
# Poissons Ratio (z) = 0.08218 0.08217
#
# Static dielectric constant tensor:
#      x y z
#    x 1.995670 0.000000 0.000000 
#    y 0.000000 1.995670 0.000000 
#    z 0.000000 0.000000 2.061450 
# 
# From -- ./inp_files/317.got.cif
#   From: 2010.05.17/outbox.cif.g08.bks.cpg/sg126_1_cif.got.tgz:317.got - 2010.05.20 11:58:20.
