data_PCOD9563389
_publ_section_title
;
Structure prediction by ZEFSAII (Michael W. Deem and Ramdas Pophale) SiO2 
 PCOD9563389
Probable space group: P 4/N N C
;
_chemical_formula_sum "Si O2"
_cell_formula_units_Z 80
_cell_length_a 27.205787
_cell_length_b 27.205787
_cell_length_c 5.687017
_cell_angle_alpha 90.000000
_cell_angle_beta 90.000000
_cell_angle_gamma 90.000000
_cell_volume 4209.273193
_symmetry_space_group_name_H-M "P 4/N N C"
_symmetry_group_IT_number 126
_space_group.IT_coordinate_system_code '2'
_symmetry_cell_setting 'tetragonal'
loop_
_space_group_symop_operation_xyz
x,y,z
1/2-y,x,z
1/2-x,1/2-y,z
y,1/2-x,z
x,1/2-y,1/2-z
1/2-x,y,1/2-z
y,x,1/2-z
1/2-y,1/2-x,1/2-z
-x,-y,-z
1/2+y,-x,-z
1/2+x,1/2+y,-z
-y,1/2+x,-z
-x,1/2+y,1/2+z
1/2+x,-y,1/2+z
-y,-x,1/2+z
1/2+y,1/2+x,1/2+z
loop_
_atom_site_type_symbol
_atom_site_label
_atom_site_fract_x
_atom_site_fract_y
_atom_site_fract_z
Si Si1 0.750000 0.667825 0.750000
Si Si2 0.763680 0.484502 0.493385
Si Si3 0.395951 0.104050 0.750000
Si Si4 0.963663 0.860839 0.617553
Si Si5 0.973965 0.442839 0.279299
Si Si6 0.202228 0.414227 0.011318
O O1 0.797043 0.702957 0.750000
O O2 0.760042 0.630246 0.962523
O O3 0.750000 0.457759 0.250000
O O4 0.820459 0.501390 0.497340
O O5 0.730969 0.534820 0.484561
O O6 0.750000 0.462460 0.750000
O O7 0.399932 0.062791 0.551295
O O8 0.403424 0.160156 0.673561
O O9 0.921852 0.829469 0.749787
O O10 0.995477 0.892316 0.798780
O O11 0.942959 0.448296 0.520159
O O12 0.011461 0.488540 0.250000
#
# Coordination Sequence:
#
# PCOD9563389 Si02
#       6
#     8  16   8  16  16  16
#     4  11  22  36  50  66  98 134 168 226 280 330
#     4  10  20  36  52  73  97 120 160 207 246 293
#     4  12  22  30  58  73  96 124 174 208 270 328
#     4  11  22  36  54  74 100 132 165 206 269 328
#     4  10  23  37  54  76 105 128 160 205 261 327
#     4  11  22  37  52  73  96 125 172 214 264 323
#
# _framework density 19.005656999999999
#
# number of rings (size 3 to 8) (size 9 to 14) (size 15 to 20)
#    0.000    1.300    5.000    3.000    7.000    0.000 
#    0.000    0.000    0.000    4.800    0.000    0.000 
#    0.000    0.000    0.000    0.000    0.000    0.000 
#
# Total GULP energy -446292.327714 kJ/mol
# GULP energy per Si atom -5578.654096 kJ/mol
# Density = 1.896240 g / cm^3
# Si number density = 19.005657 Si / 1000 Ang^3
#
#
#
# Elastic Constant Matrix: (Units=GPa)
#
#
# Indices 1 2 3 4 5 6 
#
# 1 31.6183 16.2048 13.6994 0.0000 0.0000 0.0000
# 2 16.2048 31.6203 13.6998 0.0000 0.0000 0.0000
# 3 13.6994 13.6998 112.0786 0.0000 0.0000 0.0000
# 4 0.0000 0.0000 0.0000 21.1416 0.0000 0.0000
# 5 0.0000 0.0000 0.0000 0.0000 21.1428 0.0000
# 6 0.0000 0.0000 0.0000 0.0000 0.0000 16.6452
#
#
#
# Elastic Compliance Matrix: (Units=1/GPa)
#
#
# Indices 1 2 3 4 5 6 
#
# 1 0.043680 -0.021195 -0.002748 0.000000 0.000000 0.000000
# 2 -0.021195 0.043678 -0.002748 0.000000 0.000000 0.000000
# 3 -0.002748 -0.002748 0.009594 0.000000 0.000000 0.000000
# 4 0.000000 0.000000 0.000000 0.047300 0.000000 0.000000
# 5 0.000000 0.000000 0.000000 0.000000 0.047297 0.000000
# 6 0.000000 0.000000 0.000000 0.000000 0.000000 0.060077
#
#
# Mechanical properties :
#
#
# Convention : Reuss Voigt Hill
#
# Bulk Modulus (GPa) = 22.95162 29.16947 26.06055
# Shear Modulus (GPa) = 15.64784 20.56681 18.10732
#
# Velocity S-wave (km/s) = 2.87248 3.29316 3.08999
# Velocity P-wave (km/s) = 4.80665 5.46269 5.14514
#
# Compressibility (1/GPa) = 0.04356990
#
# Stress axis : x y z
#
# Youngs Moduli (GPa) = 22.89353 22.89500 104.22989
#
# Poissons Ratio (x) = 0.48525 0.28646
# Poissons Ratio (y) = 0.48522 0.28645
# Poissons Ratio (z) = 0.06292 0.06292
#
# Static dielectric constant tensor:
#      x y z
#    x 1.653920 0.000000 0.000000 
#    y 0.000000 1.653920 0.000000 
#    z 0.000000 0.000000 1.889610 
# 
# From -- ./inp_files/621.got.cif
#   From: 2010.05.17/outbox.cif.g08.bks.cpg/sg126_1_cif.got.tgz:621.got - 2010.05.20 11:58:20.
