data_PCOD9563244
_publ_section_title
;
Structure prediction by ZEFSAII (Michael W. Deem and Ramdas Pophale) SiO2 
 PCOD9563244
Probable space group: P 4/N B M
;
_chemical_formula_sum "Si O2"
_cell_formula_units_Z 72
_cell_length_a 11.466285
_cell_length_b 11.466285
_cell_length_c 28.085038
_cell_angle_alpha 90.000000
_cell_angle_beta 90.000000
_cell_angle_gamma 90.000000
_cell_volume 3692.499798
_symmetry_space_group_name_H-M "P 4/N B M"
_symmetry_group_IT_number 125
_space_group.IT_coordinate_system_code '2'
_symmetry_cell_setting 'tetragonal'
loop_
_space_group_symop_operation_xyz
x,y,z
1/2-y,x,z
1/2-x,1/2-y,z
y,1/2-x,z
x,1/2-y,-z
1/2-x,y,-z
y,x,-z
1/2-y,1/2-x,-z
-x,-y,-z
1/2+y,-x,-z
1/2+x,1/2+y,-z
-y,1/2+x,-z
-x,1/2+y,z
1/2+x,-y,z
-y,-x,z
1/2+y,1/2+x,z
loop_
_atom_site_type_symbol
_atom_site_label
_atom_site_fract_x
_atom_site_fract_y
_atom_site_fract_z
Si Si1 0.151103 0.651103 0.822895
Si Si2 0.054843 0.280840 0.245871
Si Si3 0.848664 0.348664 0.067715
Si Si4 0.560044 0.255477 0.450194
Si Si5 0.250000 0.449381 0.000000
Si Si6 0.056939 0.278548 0.350399
O O1 0.250000 0.750000 0.822410
O O2 0.198429 0.539043 0.794631
O O3 0.122322 0.622322 0.877605
O O4 0.121586 0.156886 0.242582
O O5 0.997313 0.287724 0.298748
O O6 0.750000 0.250000 0.067126
O O7 0.960124 0.290019 0.041566
O O8 0.488922 0.250000 0.500000
O O9 0.617266 0.382734 0.443171
O O10 0.663511 0.163511 0.459359
O O11 0.506999 0.216856 0.400411
O O12 0.138837 0.361164 0.000000
O O13 0.122808 0.155224 0.350271
#
# Coordination Sequence:
#
# PCOD9563244 Si02
#       6
#     8  16   8  16   8  16
#     4  11  26  39  63 100 130 164 218 260 312 369
#     4   9  21  43  63  84 125 169 207 261 318 374
#     4  11  23  43  65  96 141 175 211 274 318 365
#     4   9  19  34  49  72 106 139 177 232 293 351
#     4  11  23  42  72 102 131 179 226 262 322 379
#     4   9  19  36  56  77 104 143 187 234 294 357
#
# _framework density 19.498985999999999
#
# number of rings (size 3 to 8) (size 9 to 14) (size 15 to 20)
#    0.000    2.333    1.111    2.333    3.111    4.444 
#    4.000    5.556    0.000    0.000    0.000    0.000 
#    0.000    0.000    0.000    0.000    0.000    0.000 
#
# Total GULP energy -400869.395842 kJ/mol
# GULP energy per Si atom -5567.630498 kJ/mol
# Density = 1.945461 g / cm^3
# Si number density = 19.498986 Si / 1000 Ang^3
#
#
#
# Elastic Constant Matrix: (Units=GPa)
#
#
# Indices 1 2 3 4 5 6 
#
# 1 76.2159 22.8807 69.3497 0.0000 0.0000 0.0000
# 2 22.8807 76.2157 69.3497 0.0000 0.0000 0.0000
# 3 69.3497 69.3497 221.5681 0.0000 0.0000 0.0000
# 4 0.0000 0.0000 0.0000 36.7989 0.0000 0.0000
# 5 0.0000 0.0000 0.0000 0.0000 36.7987 0.0000
# 6 0.0000 0.0000 0.0000 0.0000 0.0000 23.5475
#
#
#
# Elastic Compliance Matrix: (Units=1/GPa)
#
#
# Indices 1 2 3 4 5 6 
#
# 1 0.018354 -0.000395 -0.005621 0.000000 0.000000 0.000000
# 2 -0.000395 0.018354 -0.005621 0.000000 0.000000 0.000000
# 3 -0.005621 -0.005621 0.008032 0.000000 0.000000 0.000000
# 4 0.000000 0.000000 0.000000 0.027175 0.000000 0.000000
# 5 0.000000 0.000000 0.000000 0.000000 0.027175 0.000000
# 6 0.000000 0.000000 0.000000 0.000000 0.000000 0.042467
#
#
# Mechanical properties :
#
#
# Convention : Reuss Voigt Hill
#
# Bulk Modulus (GPa) = 46.58715 77.46220 62.02467
# Shear Modulus (GPa) = 29.07209 33.59032 31.33121
#
# Velocity S-wave (km/s) = 3.86548 4.15501 4.01285
# Velocity P-wave (km/s) = 6.62318 7.92662 7.30403
#
# Compressibility (1/GPa) = 0.02146515
#
# Stress axis : x y z
#
# Youngs Moduli (GPa) = 54.48447 54.48423 124.50343
#
# Poissons Ratio (x) = 0.02155 0.69982
# Poissons Ratio (y) = 0.02155 0.69982
# Poissons Ratio (z) = 0.30625 0.30625
#
# Static dielectric constant tensor:
#      x y z
#    x 1.688930 0.000000 0.000000 
#    y 0.000000 1.688930 0.000000 
#    z 0.000000 0.000000 1.733280 
# 
# From -- ./inp_files/6366.got.cif
#   From: 2010.05.17/outbox.cif.g08.bks.cpg/sg125_4_cif.got.tgz:6366.got - 2010.05.20 11:54:10.
