data_PCOD9563501
_publ_section_title
;
Structure prediction by ZEFSAII (Michael W. Deem and Ramdas Pophale) SiO2 
 PCOD9563501
Probable space group: P 4/N N C
;
_chemical_formula_sum "Si O2"
_cell_formula_units_Z 52
_cell_length_a 11.989318
_cell_length_b 11.989318
_cell_length_c 20.390579
_cell_angle_alpha 90.000000
_cell_angle_beta 90.000000
_cell_angle_gamma 90.000000
_cell_volume 2931.018211
_symmetry_space_group_name_H-M "P 4/N N C"
_symmetry_group_IT_number 126
_space_group.IT_coordinate_system_code '2'
_symmetry_cell_setting 'tetragonal'
loop_
_space_group_symop_operation_xyz
x,y,z
1/2-y,x,z
1/2-x,1/2-y,z
y,1/2-x,z
x,1/2-y,1/2-z
1/2-x,y,1/2-z
y,x,1/2-z
1/2-y,1/2-x,1/2-z
-x,-y,-z
1/2+y,-x,-z
1/2+x,1/2+y,-z
-y,1/2+x,-z
-x,1/2+y,1/2+z
1/2+x,-y,1/2+z
-y,-x,1/2+z
1/2+y,1/2+x,1/2+z
loop_
_atom_site_type_symbol
_atom_site_label
_atom_site_fract_x
_atom_site_fract_y
_atom_site_fract_z
Si Si1 0.920640 0.522905 0.900335
Si Si2 0.250000 0.750000 0.750000
Si Si3 0.864762 0.893051 0.040414
Si Si4 0.206947 0.535514 0.318189
O O1 0.806102 0.472883 0.871607
O O2 0.009566 0.430304 0.922504
O O3 0.975530 0.599223 0.844958
O O4 0.903352 0.602858 0.963443
O O5 0.163845 0.815475 0.703356
O O6 0.733642 0.901557 0.055484
O O7 0.250000 0.482940 0.250000
#
# Coordination Sequence:
#
# PCOD9563501 Si02
#       4
#    16   4  16  16
#     4  11  21  38  60  84 118 158 192 245 303 353
#     4   8  24  36  56  84 114 156 192 248 272 354
#     4  10  22  38  57  85 118 156 198 245 293 362
#     4  10  22  39  59  88 116 156 199 244 297 355
#
# _framework density 17.741275000000002
#
# number of rings (size 3 to 8) (size 9 to 14) (size 15 to 20)
#    0.923    0.923    3.077    0.923    4.308    0.615 
#    0.000    1.538    0.000    0.000    0.000    6.462 
#    0.000    0.000    0.000    0.000    0.000    0.000 
#
# Total GULP energy -289495.717546 kJ/mol
# GULP energy per Si atom -5567.225337 kJ/mol
# Density = 1.770089 g / cm^3
# Si number density = 17.741275 Si / 1000 Ang^3
#
#
#
# Elastic Constant Matrix: (Units=GPa)
#
#
# Indices 1 2 3 4 5 6 
#
# 1 54.4668 23.0718 6.4296 0.0000 0.0000 0.0000
# 2 23.0718 54.4668 6.4296 0.0000 0.0000 0.0000
# 3 6.4296 6.4296 61.0863 0.0000 0.0000 0.0000
# 4 0.0000 0.0000 0.0000 23.5733 0.0000 0.0000
# 5 0.0000 0.0000 0.0000 0.0000 23.5733 0.0000
# 6 0.0000 0.0000 0.0000 0.0000 0.0000 8.6787
#
#
#
# Elastic Compliance Matrix: (Units=1/GPa)
#
#
# Indices 1 2 3 4 5 6 
#
# 1 0.022489 -0.009363 -0.001382 0.000000 0.000000 0.000000
# 2 -0.009363 0.022489 -0.001382 0.000000 0.000000 0.000000
# 3 -0.001382 -0.001382 0.016661 0.000000 0.000000 0.000000
# 4 0.000000 0.000000 0.000000 0.042421 0.000000 0.000000
# 5 0.000000 0.000000 0.000000 0.000000 0.042421 0.000000
# 6 0.000000 0.000000 0.000000 0.000000 0.000000 0.115225
#
#
# Mechanical properties :
#
#
# Convention : Reuss Voigt Hill
#
# Bulk Modulus (GPa) = 26.74750 26.87580 26.81165
# Shear Modulus (GPa) = 16.75487 20.10429 18.42958
#
# Velocity S-wave (km/s) = 3.07644 3.36995 3.22653
# Velocity P-wave (km/s) = 5.26579 5.50669 5.38759
#
# Compressibility (1/GPa) = 0.03738667
#
# Stress axis : x y z
#
# Youngs Moduli (GPa) = 44.46605 44.46605 60.01999
#
# Poissons Ratio (x) = 0.41634 0.08292
# Poissons Ratio (y) = 0.41634 0.08292
# Poissons Ratio (z) = 0.06143 0.06143
#
# Static dielectric constant tensor:
#      x y z
#    x 1.596920 0.000000 0.000000 
#    y 0.000000 1.596920 0.000000 
#    z 0.000000 0.000000 1.619080 
# 
# From -- ./inp_files/4895.got.cif
#   From: 2010.05.17/outbox.cif.g08.bks.cpg/sg126_3_cif.got.tgz:4895.got - 2010.05.20 11:58:20.
