data_PCOD9563847
_publ_section_title
;
Structure prediction by ZEFSAII (Michael W. Deem and Ramdas Pophale) SiO2 
 PCOD9563847
Probable space group: P 4/M B M
;
_chemical_formula_sum "Si O2"
_cell_formula_units_Z 72
_cell_length_a 26.273104
_cell_length_b 26.273104
_cell_length_c 7.593928
_cell_angle_alpha 90.000000
_cell_angle_beta 90.000000
_cell_angle_gamma 90.000000
_cell_volume 5241.906197
_symmetry_space_group_name_H-M "P 4/M B M"
_symmetry_group_IT_number 127
_symmetry_cell_setting 'tetragonal'
loop_
_space_group_symop_operation_xyz
x,y,z
-y,x,z
-x,-y,z
y,-x,z
1/2+x,1/2-y,-z
1/2-x,1/2+y,-z
1/2+y,1/2+x,-z
1/2-y,1/2-x,-z
-x,-y,-z
y,-x,-z
x,y,-z
-y,x,-z
1/2-x,1/2+y,z
1/2+x,1/2-y,z
1/2-y,1/2-x,z
1/2+y,1/2+x,z
loop_
_atom_site_type_symbol
_atom_site_label
_atom_site_fract_x
_atom_site_fract_y
_atom_site_fract_z
Si Si1 0.380639 0.794292 0.791305
Si Si2 0.015081 0.342973 0.791233
Si Si3 0.540677 0.040677 0.289835
Si Si4 0.175992 0.236713 0.500000
Si Si5 0.183857 0.598292 0.789928
Si Si6 0.155118 0.742181 0.500000
O O1 0.343402 0.843402 0.771922
O O2 0.436523 0.810917 0.726259
O O3 0.357113 0.749953 0.672153
O O4 0.381702 0.782097 0.000000
O O5 0.026268 0.402371 0.763585
O O6 0.959012 0.328087 0.727770
O O7 0.014100 0.334523 0.000000
O O8 0.538942 0.038942 0.500000
O O9 0.500000 0.000000 0.219128
O O10 0.221319 0.278682 0.500000
O O11 0.203215 0.182190 0.500000
O O12 0.134021 0.634021 0.763802
O O13 0.228550 0.622359 0.672701
O O14 0.194733 0.598798 0.000000
O O15 0.200750 0.700750 0.500000
#
# Coordination Sequence:
#
# PCOD9563847 Si02
#       6
#    16  16   8   8  16   8
#     4   9  17  28  42  62  82 103 134 170 209 254
#     4  10  19  31  44  58  80 112 143 175 216 251
#     4  11  23  29  37  59  83 113 151 185 213 247
#     4   9  18  29  44  60  75 101 128 170 225 259
#     4   9  18  30  44  60  80 108 141 176 210 245
#     4   9  18  31  44  59  76  98 135 176 219 257
#
# _framework density 13.735461000000001
#
# number of rings (size 3 to 8) (size 9 to 14) (size 15 to 20)
#    0.000    2.556    1.111    1.000    3.111    2.667 
#    0.000    4.444    0.000    0.000    0.000    0.000 
#    0.000    0.000    0.000    0.000    0.000    8.889 
#
# Total GULP energy -401160.584277 kJ/mol
# GULP energy per Si atom -5571.674782 kJ/mol
# Density = 1.370420 g / cm^3
# Si number density = 13.735461 Si / 1000 Ang^3
#
#
#
# Elastic Constant Matrix: (Units=GPa)
#
#
# Indices 1 2 3 4 5 6 
#
# 1 77.0249 69.0365 37.9464 0.0000 0.0000 0.0000
# 2 69.0365 77.0251 37.9464 0.0000 0.0000 0.0000
# 3 37.9464 37.9464 60.6414 0.0000 0.0000 0.0000
# 4 0.0000 0.0000 0.0000 16.6104 0.0000 0.0000
# 5 0.0000 0.0000 0.0000 0.0000 16.6103 0.0000
# 6 0.0000 0.0000 0.0000 0.0000 0.0000 28.1256
#
#
#
# Elastic Compliance Matrix: (Units=1/GPa)
#
#
# Indices 1 2 3 4 5 6 
#
# 1 0.067663 -0.057518 -0.006348 0.000000 0.000000 0.000000
# 2 -0.057518 0.067663 -0.006348 0.000000 0.000000 0.000000
# 3 -0.006348 -0.006348 0.024435 0.000000 0.000000 0.000000
# 4 0.000000 0.000000 0.000000 0.060203 0.000000 0.000000
# 5 0.000000 0.000000 0.000000 0.000000 0.060204 0.000000
# 6 0.000000 0.000000 0.000000 0.000000 0.000000 0.035555
#
#
# Mechanical properties :
#
#
# Convention : Reuss Voigt Hill
#
# Bulk Modulus (GPa) = 51.72709 56.06112 53.89411
# Shear Modulus (GPa) = 10.80859 16.92005 13.86432
#
# Velocity S-wave (km/s) = 2.80824 3.51358 3.18052
# Velocity P-wave (km/s) = 6.94667 7.57389 7.26705
#
# Compressibility (1/GPa) = 0.01933223
#
# Stress axis : x y z
#
# Youngs Moduli (GPa) = 14.77916 14.77921 40.92462
#
# Poissons Ratio (x) = 0.85007 0.25980
# Poissons Ratio (y) = 0.85006 0.25979
# Poissons Ratio (z) = 0.09382 0.09382
#
# Static dielectric constant tensor:
#      x y z
#    x 1.435980 0.000000 0.000000 
#    y 0.000000 1.435980 0.000000 
#    z 0.000000 0.000000 1.484300 
# 
# From -- ./inp_files/1674.got.cif
#   From: 2010.05.17/outbox.cif.g08.bks.cpg/sg127_1_cif.got.tgz:1674.got - 2010.05.20 12:03:00.
