data_PCOD9563914
_publ_section_title
;
Structure prediction by ZEFSAII (Michael W. Deem and Ramdas Pophale) SiO2 
 PCOD9563914
Probable space group: P 4/M B M
;
_chemical_formula_sum "Si O2"
_cell_formula_units_Z 72
_cell_length_a 19.146339
_cell_length_b 19.146339
_cell_length_c 12.069712
_cell_angle_alpha 90.000000
_cell_angle_beta 90.000000
_cell_angle_gamma 90.000000
_cell_volume 4424.542750
_symmetry_space_group_name_H-M "P 4/M B M"
_symmetry_group_IT_number 127
_symmetry_cell_setting 'tetragonal'
loop_
_space_group_symop_operation_xyz
x,y,z
-y,x,z
-x,-y,z
y,-x,z
1/2+x,1/2-y,-z
1/2-x,1/2+y,-z
1/2+y,1/2+x,-z
1/2-y,1/2-x,-z
-x,-y,-z
y,-x,-z
x,y,-z
-y,x,-z
1/2-x,1/2+y,z
1/2+x,1/2-y,z
1/2-y,1/2-x,z
1/2+y,1/2+x,z
loop_
_atom_site_type_symbol
_atom_site_label
_atom_site_fract_x
_atom_site_fract_y
_atom_site_fract_z
Si Si1 0.269035 0.350224 0.871358
Si Si2 0.866237 0.249022 0.263020
Si Si3 0.295984 0.460635 0.500000
Si Si4 0.710448 0.024133 0.274484
Si Si5 0.059249 0.440752 0.632675
Si Si6 0.820445 0.883454 0.500000
O O1 0.207354 0.292647 0.865044
O O2 0.334695 0.314396 0.809494
O O3 0.240050 0.418934 0.810928
O O4 0.284821 0.363361 0.000000
O O5 0.814563 0.314563 0.249143
O O6 0.945515 0.271170 0.237016
O O7 0.865746 0.223786 0.390616
O O8 0.249282 0.461767 0.609500
O O9 0.336255 0.534057 0.500000
O O10 0.342085 0.392117 0.500000
O O11 0.629183 0.033864 0.305012
O O12 0.072459 0.427542 0.500000
O O13 0.000000 0.500000 0.638305
#
# Coordination Sequence:
#
# PCOD9563914 Si02
#       6
#    16  16   8  16   8   8
#     4  10  21  37  58  80 104 143 194 238 278 323
#     4  10  21  35  55  83 112 143 182 231 279 334
#     4  10  20  32  53  83 108 145 185 219 282 342
#     4  11  20  36  56  82 115 148 187 228 281 343
#     4  11  22  34  53  85 125 159 184 224 281 352
#     4  10  19  33  53  80 113 142 176 228 278 340
#
# _framework density 16.272869
#
# number of rings (size 3 to 8) (size 9 to 14) (size 15 to 20)
#    0.000    1.667    4.444    1.000    0.000    1.111 
#    2.000    0.000    0.000    3.333    0.000    1.556 
#    0.000    0.000    0.000    0.000    0.000    0.000 
#
# Total GULP energy -401618.100342 kJ/mol
# GULP energy per Si atom -5578.029171 kJ/mol
# Density = 1.623583 g / cm^3
# Si number density = 16.272869 Si / 1000 Ang^3
#
#
#
# Elastic Constant Matrix: (Units=GPa)
#
#
# Indices 1 2 3 4 5 6 
#
# 1 115.7315 72.4799 50.4449 0.0000 0.0000 0.0000
# 2 72.4799 115.7318 50.4450 0.0000 0.0000 0.0000
# 3 50.4449 50.4450 110.1117 0.0000 0.0000 0.0000
# 4 0.0000 0.0000 0.0000 -58.3896 0.0000 0.0000
# 5 0.0000 0.0000 0.0000 0.0000 -58.4133 0.0000
# 6 0.0000 0.0000 0.0000 0.0000 0.0000 208.7977
#
#
#
# Elastic Compliance Matrix: (Units=1/GPa)
#
#
# Indices 1 2 3 4 5 6 
#
# 1 0.015082 -0.008039 -0.003226 0.000000 0.000000 0.000000
# 2 -0.008039 0.015082 -0.003226 0.000000 0.000000 0.000000
# 3 -0.003226 -0.003226 0.012038 0.000000 0.000000 0.000000
# 4 0.000000 0.000000 0.000000 -0.017126 0.000000 0.000000
# 5 0.000000 0.000000 0.000000 0.000000 -0.017119 0.000000
# 6 0.000000 0.000000 0.000000 0.000000 0.000000 0.004789
#
#
# Mechanical properties :
#
#
# Convention : Reuss Voigt Hill
#
# Bulk Modulus (GPa) = 75.65699 76.47939 76.06819
# Shear Modulus (GPa) = 108.38008 29.61266 68.99637
#
# Velocity S-wave (km/s) = 8.16984 4.27049 6.51856
# Velocity P-wave (km/s) = 11.64426 8.45081 10.17362
#
# Compressibility (1/GPa) = 0.01321755
#
# Stress axis : x y z
#
# Youngs Moduli (GPa) = 66.30604 66.30622 83.07091
#
# Poissons Ratio (x) = 0.53303 0.26802
# Poissons Ratio (y) = 0.53303 0.26802
# Poissons Ratio (z) = 0.21393 0.21393
#
# Static dielectric constant tensor:
#      x y z
#    x 1.531200 0.000000 0.000000 
#    y 0.000000 1.531200 0.000000 
#    z 0.000000 0.000000 1.530930 
# 
# From -- ./inp_files/3212.got.cif
#   From: 2010.05.17/outbox.cif.g08.bks.cpg/sg127_2_cif.got.tgz:3212.got - 2010.05.20 12:03:00.
