data_PCOD9563735
_publ_section_title
;
Structure prediction by ZEFSAII (Michael W. Deem and Ramdas Pophale) SiO2 
 PCOD9563735
Probable space group: P 4/N N C
;
_chemical_formula_sum "Si O2"
_cell_formula_units_Z 88
_cell_length_a 12.000000
_cell_length_b 12.000000
_cell_length_c 30.000000
_cell_angle_alpha 90.000000
_cell_angle_beta 90.000000
_cell_angle_gamma 90.000000
_cell_volume 4320.000000
_symmetry_space_group_name_H-M "P 4/N N C"
_symmetry_group_IT_number 126
_space_group.IT_coordinate_system_code '2'
_symmetry_cell_setting 'tetragonal'
loop_
_space_group_symop_operation_xyz
x,y,z
1/2-y,x,z
1/2-x,1/2-y,z
y,1/2-x,z
x,1/2-y,1/2-z
1/2-x,y,1/2-z
y,x,1/2-z
1/2-y,1/2-x,1/2-z
-x,-y,-z
1/2+y,-x,-z
1/2+x,1/2+y,-z
-y,1/2+x,-z
-x,1/2+y,1/2+z
1/2+x,-y,1/2+z
-y,-x,1/2+z
1/2+y,1/2+x,1/2+z
loop_
_atom_site_type_symbol
_atom_site_label
_atom_site_fract_x
_atom_site_fract_y
_atom_site_fract_z
Si Si1 0.920632 0.291336 0.505536
Si Si2 0.327148 0.414126 0.437652
Si Si3 0.444939 0.250000 0.750000
Si Si4 0.573674 0.815163 0.668859
Si Si5 0.124310 0.811464 0.327398
Si Si6 0.236214 0.441845 0.594531
O O1 0.866094 0.184777 0.480508
O O2 0.986287 0.362892 0.468763
O O3 0.000672 0.253646 0.545897
O O4 0.198032 0.391557 0.448867
O O5 0.328070 0.431316 0.384845
O O6 0.358553 0.358553 0.750000
O O7 0.534157 0.265859 0.709338
O O8 0.609454 0.685463 0.681048
O O9 0.445726 0.850603 0.681891
O O10 0.250000 0.750000 0.328017
O O11 0.048195 0.787670 0.372170
O O12 0.134351 0.350670 0.600375
#
# Coordination Sequence:
#
# PCOD9563735 Si02
#       6
#    16  16   8  16  16  16
#     4  11  24  36  55  89 133 179 239 297 358 416
#     4   9  18  35  57  82 120 172 226 276 332 400
#     4  11  27  54  82 110 145 185 228 286 358 431
#     4   9  21  40  68 105 142 185 232 286 353 417
#     4  12  27  44  77 109 140 185 234 292 352 433
#     4  11  26  45  67 100 140 189 244 303 367 429
#
# _framework density 20.370370000000001
#
# number of rings (size 3 to 8) (size 9 to 14) (size 15 to 20)
#    0.000    1.545    0.000    4.636   10.182    7.273 
#    0.000    0.000    0.000    0.000    0.000    0.000 
#    0.000    0.000    0.000    0.000    0.000    0.000 
#
# Total GULP energy -490206.398458 kJ/mol
# GULP energy per Si atom -5570.527255 kJ/mol
# Density = 2.032401 g / cm^3
# Si number density = 20.370370 Si / 1000 Ang^3
#
#
#
# Elastic Constant Matrix: (Units=GPa)
#
#
# Indices 1 2 3 4 5 6 
#
# 1 144.1299 48.6444 23.7717 0.0000 0.0000 0.0000
# 2 48.6444 144.1299 23.7717 0.0000 0.0000 0.0000
# 3 23.7717 23.7717 44.5520 0.0000 0.0000 0.0000
# 4 0.0000 0.0000 0.0000 36.2250 0.0000 0.0000
# 5 0.0000 0.0000 0.0000 0.0000 36.2250 0.0000
# 6 0.0000 0.0000 0.0000 0.0000 0.0000 35.6332
#
#
#
# Elastic Compliance Matrix: (Units=1/GPa)
#
#
# Indices 1 2 3 4 5 6 
#
# 1 0.008223 -0.002250 -0.003187 0.000000 0.000000 0.000000
# 2 -0.002250 0.008223 -0.003187 0.000000 0.000000 0.000000
# 3 -0.003187 -0.003187 0.025847 0.000000 0.000000 0.000000
# 4 0.000000 0.000000 0.000000 0.027605 0.000000 0.000000
# 5 0.000000 0.000000 0.000000 0.000000 0.027605 0.000000
# 6 0.000000 0.000000 0.000000 0.000000 0.000000 0.028064
#
#
# Mechanical properties :
#
#
# Convention : Reuss Voigt Hill
#
# Bulk Modulus (GPa) = 39.92842 58.35416 49.14129
# Shear Modulus (GPa) = 33.07660 37.39156 35.23408
#
# Velocity S-wave (km/s) = 4.03396 4.28902 4.16345
# Velocity P-wave (km/s) = 6.42969 7.29633 6.87667
#
# Compressibility (1/GPa) = 0.02504482
#
# Stress axis : x y z
#
# Youngs Moduli (GPa) = 121.60799 121.60799 38.68920
#
# Poissons Ratio (x) = 0.27358 0.12331
# Poissons Ratio (y) = 0.27358 0.12331
# Poissons Ratio (z) = 0.38760 0.38760
#
# Static dielectric constant tensor:
#      x y z
#    x 1.739040 0.000000 0.000000 
#    y 0.000000 1.739040 0.000000 
#    z 0.000000 0.000000 1.761730 
# 
# From -- ./inp_files/6531.got.cif
#   From: 2010.05.17/outbox.ucp.g08.bks.cvg/sg126_4_cif.got.tgz:6531.got - 2010.06.11 11:36:48.
