data_PCOD9563658
_publ_section_title
;
Structure prediction by ZEFSAII (Michael W. Deem and Ramdas Pophale) SiO2 
 PCOD9563658
Probable space group: P 4/N N C
;
_chemical_formula_sum "Si O2"
_cell_formula_units_Z 112
_cell_length_a 14.485377
_cell_length_b 14.485377
_cell_length_c 24.635914
_cell_angle_alpha 90.000000
_cell_angle_beta 90.000000
_cell_angle_gamma 90.000000
_cell_volume 5169.258908
_symmetry_space_group_name_H-M "P 4/N N C"
_symmetry_group_IT_number 126
_space_group.IT_coordinate_system_code '2'
_symmetry_cell_setting 'tetragonal'
loop_
_space_group_symop_operation_xyz
x,y,z
1/2-y,x,z
1/2-x,1/2-y,z
y,1/2-x,z
x,1/2-y,1/2-z
1/2-x,y,1/2-z
y,x,1/2-z
1/2-y,1/2-x,1/2-z
-x,-y,-z
1/2+y,-x,-z
1/2+x,1/2+y,-z
-y,1/2+x,-z
-x,1/2+y,1/2+z
1/2+x,-y,1/2+z
-y,-x,1/2+z
1/2+y,1/2+x,1/2+z
loop_
_atom_site_type_symbol
_atom_site_label
_atom_site_fract_x
_atom_site_fract_y
_atom_site_fract_z
Si Si1 0.489282 0.596865 0.467329
Si Si2 0.828062 0.178544 0.103400
Si Si3 0.927232 0.958528 0.808188
Si Si4 0.716815 0.601977 0.960448
Si Si5 0.771392 0.020439 0.186854
Si Si6 0.061184 0.087831 0.858178
Si Si7 0.757734 0.985505 0.652540
O O1 0.500000 0.500000 0.500000
O O2 0.390440 0.620690 0.439543
O O3 0.514967 0.682203 0.505921
O O4 0.564524 0.593714 0.418754
O O5 0.750000 0.250000 0.082835
O O6 0.910050 0.234432 0.132213
O O7 0.784477 0.111077 0.149463
O O8 0.972487 0.972487 0.750000
O O9 0.818781 0.972144 0.801980
O O10 0.953011 0.858103 0.829740
O O11 0.965968 0.032353 0.850229
O O12 0.817239 0.643212 0.972475
O O13 0.575613 0.779113 0.897507
O O14 0.750000 0.040241 0.250000
O O15 0.864545 0.961414 0.180549
O O16 0.691037 0.959096 0.159540
#
# Coordination Sequence:
#
# PCOD9563658 Si02
#       7
#    16  16  16  16  16  16  16
#     4  11  24  47  72  99 140 189 241 295 375 432
#     4  11  26  48  69 108 146 186 245 304 359 442
#     4  12  24  43  70 104 145 191 238 295 363 437
#     4  11  24  43  72  96 130 181 234 291 359 423
#     4  11  23  45  74 105 144 193 239 296 374 433
#     4  11  25  44  70 104 146 184 245 304 358 442
#     4  12  23  47  69 102 144 188 239 298 361 435
#
# _framework density 21.666550000000001
#
# number of rings (size 3 to 8) (size 9 to 14) (size 15 to 20)
#    0.000    0.714    4.286    4.286    4.000    0.857 
#    5.143    1.429    0.000    0.000    0.000    0.000 
#    0.000    0.000    0.000    0.000    0.000    0.000 
#
# Total GULP energy -626128.512368 kJ/mol
# GULP energy per Si atom -5590.433146 kJ/mol
# Density = 2.161724 g / cm^3
# Si number density = 21.666550 Si / 1000 Ang^3
#
#
#
# Elastic Constant Matrix: (Units=GPa)
#
#
# Indices 1 2 3 4 5 6 
#
# 1 93.1253 41.7169 22.0309 0.0000 0.0000 0.0000
# 2 41.7169 93.1253 22.0309 0.0000 0.0000 0.0000
# 3 22.0309 22.0309 97.4178 0.0000 0.0000 0.0000
# 4 0.0000 0.0000 0.0000 20.6899 0.0000 0.0000
# 5 0.0000 0.0000 0.0000 0.0000 20.6899 0.0000
# 6 0.0000 0.0000 0.0000 0.0000 0.0000 36.7060
#
#
#
# Elastic Compliance Matrix: (Units=1/GPa)
#
#
# Indices 1 2 3 4 5 6 
#
# 1 0.013730 -0.005722 -0.001811 0.000000 0.000000 0.000000
# 2 -0.005722 0.013730 -0.001811 0.000000 0.000000 0.000000
# 3 -0.001811 -0.001811 0.011084 0.000000 0.000000 0.000000
# 4 0.000000 0.000000 0.000000 0.048333 0.000000 0.000000
# 5 0.000000 0.000000 0.000000 0.000000 0.048333 0.000000
# 6 0.000000 0.000000 0.000000 0.000000 0.000000 0.027244
#
#
# Mechanical properties :
#
#
# Convention : Reuss Voigt Hill
#
# Bulk Modulus (GPa) = 50.36266 50.58065 50.47166
# Shear Modulus (GPa) = 26.62973 28.80978 27.71975
#
# Velocity S-wave (km/s) = 3.50961 3.65045 3.58072
# Velocity P-wave (km/s) = 6.30223 6.41587 6.35930
#
# Compressibility (1/GPa) = 0.01985598
#
# Stress axis : x y z
#
# Youngs Moduli (GPa) = 72.83339 72.83339 90.21881
#
# Poissons Ratio (x) = 0.41676 0.16338
# Poissons Ratio (y) = 0.41676 0.16338
# Poissons Ratio (z) = 0.13190 0.13190
#
# Static dielectric constant tensor:
#      x y z
#    x 1.810890 0.000000 0.000000 
#    y 0.000000 1.810890 0.000000 
#    z 0.000000 0.000000 1.792480 
# 
# From -- ./inp_files/5812.got.cif
#   From: 2010.05.17/outbox.cif.g08.bks.cpg/sg126_3_cif.got.tgz:5812.got - 2010.05.20 11:58:20.
