data_PCOD9563942
_publ_section_title
;
Structure prediction by ZEFSAII (Michael W. Deem and Ramdas Pophale) SiO2 
 PCOD9563942
Probable space group: P 4/M B M
;
_chemical_formula_sum "Si O2"
_cell_formula_units_Z 128
_cell_length_a 24.186908
_cell_length_b 24.186908
_cell_length_c 11.563820
_cell_angle_alpha 90.000000
_cell_angle_beta 90.000000
_cell_angle_gamma 90.000000
_cell_volume 6764.910080
_symmetry_space_group_name_H-M "P 4/M B M"
_symmetry_group_IT_number 127
_symmetry_cell_setting 'tetragonal'
loop_
_space_group_symop_operation_xyz
x,y,z
-y,x,z
-x,-y,z
y,-x,z
1/2+x,1/2-y,-z
1/2-x,1/2+y,-z
1/2+y,1/2+x,-z
1/2-y,1/2-x,-z
-x,-y,-z
y,-x,-z
x,y,-z
-y,x,-z
1/2-x,1/2+y,z
1/2+x,1/2-y,z
1/2-y,1/2-x,z
1/2+y,1/2+x,z
loop_
_atom_site_type_symbol
_atom_site_label
_atom_site_fract_x
_atom_site_fract_y
_atom_site_fract_z
Si Si1 0.419189 0.168764 0.258473
Si Si2 0.886701 0.525437 0.638782
Si Si3 0.660682 0.747708 0.371347
Si Si4 0.315362 0.646147 0.872038
Si Si5 0.270623 0.527750 0.130232
Si Si6 0.314380 0.417525 0.759696
Si Si7 0.576061 0.546920 0.638867
Si Si8 0.205005 0.381060 0.638191
O O1 0.369707 0.130294 0.210510
O O2 0.466818 0.129200 0.308045
O O3 0.389931 0.208615 0.353550
O O4 0.447487 0.212000 0.171756
O O5 0.889608 0.519773 0.500000
O O6 0.942964 0.557037 0.676099
O O7 0.836352 0.567927 0.664971
O O8 0.654661 0.720654 0.500000
O O9 0.716165 0.783836 0.374748
O O10 0.662233 0.713787 0.250520
O O11 0.312216 0.579653 0.867693
O O12 0.376615 0.670426 0.863675
O O13 0.291027 0.661277 0.000000
O O14 0.292746 0.477836 0.206141
O O15 0.265020 0.507385 0.000000
O O16 0.370465 0.423770 0.687890
O O17 0.264596 0.390161 0.689627
O O18 0.517636 0.573648 0.674596
O O19 0.577696 0.548138 0.500000
O O20 0.208753 0.378434 0.500000
O O21 0.174216 0.325785 0.679855
#
# Coordination Sequence:
#
# PCOD9563942 Si02
#       8
#    16  16  16  16  16  16  16  16
#     4  10  19  34  57  85 113 146 187 235 288 343
#     4   9  17  31  51  79 116 151 182 223 280 341
#     4   9  19  36  58  84 115 149 188 239 293 343
#     4  10  23  39  56  83 116 149 188 237 289 346
#     4  10  22  40  58  80 109 144 187 238 293 347
#     4  12  20  35  60  83 106 148 201 240 278 342
#     4   9  19  35  54  83 123 156 186 235 297 356
#     4   9  19  34  52  79 116 152 187 233 286 337
#
# _framework density 18.921168000000002
#
# number of rings (size 3 to 8) (size 9 to 14) (size 15 to 20)
#    0.000    2.250    1.250    3.000    0.000    3.000 
#    0.000    6.250    0.000    2.250    0.000    6.125 
#    0.000    0.000    0.000    0.000    0.000    0.000 
#
# Total GULP energy -713219.065573 kJ/mol
# GULP energy per Si atom -5572.023950 kJ/mol
# Density = 1.887810 g / cm^3
# Si number density = 18.921168 Si / 1000 Ang^3
#
#
#
# Elastic Constant Matrix: (Units=GPa)
#
#
# Indices 1 2 3 4 5 6 
#
# 1 66.5687 30.2218 24.7934 0.0000 0.0000 0.0000
# 2 30.2218 66.5687 24.7934 0.0000 0.0000 0.0000
# 3 24.7934 24.7934 75.9544 0.0000 0.0000 0.0000
# 4 0.0000 0.0000 0.0000 8.8246 0.0000 0.0000
# 5 0.0000 0.0000 0.0000 0.0000 8.8246 0.0000
# 6 0.0000 0.0000 0.0000 0.0000 0.0000 27.8248
#
#
#
# Elastic Compliance Matrix: (Units=1/GPa)
#
#
# Indices 1 2 3 4 5 6 
#
# 1 0.019959 -0.007553 -0.004050 0.000000 0.000000 0.000000
# 2 -0.007553 0.019959 -0.004050 0.000000 0.000000 0.000000
# 3 -0.004050 -0.004050 0.015810 0.000000 0.000000 0.000000
# 4 0.000000 0.000000 0.000000 0.113319 0.000000 0.000000
# 5 0.000000 0.000000 0.000000 0.000000 0.113319 0.000000
# 6 0.000000 0.000000 0.000000 0.000000 0.000000 0.035939
#
#
# Mechanical properties :
#
#
# Convention : Reuss Voigt Hill
#
# Bulk Modulus (GPa) = 40.94441 40.96769 40.95605
# Shear Modulus (GPa) = 13.97614 17.71369 15.84492
#
# Velocity S-wave (km/s) = 2.72076 3.06303 2.89696
# Velocity P-wave (km/s) = 5.61752 5.84879 5.73432
#
# Compressibility (1/GPa) = 0.02442336
#
# Stress axis : x y z
#
# Youngs Moduli (GPa) = 50.10152 50.10152 63.25248
#
# Poissons Ratio (x) = 0.37843 0.25616
# Poissons Ratio (y) = 0.37843 0.25616
# Poissons Ratio (z) = 0.20290 0.20290
#
# Static dielectric constant tensor:
#      x y z
#    x 1.673290 0.000000 0.000000 
#    y 0.000000 1.673290 0.000000 
#    z 0.000000 0.000000 1.654180 
# 
# From -- ./inp_files/3849.got.cif
#   From: 2010.05.17/outbox.cif.g08.bks.cpg/sg127_2_cif.got.tgz:3849.got - 2010.05.20 12:03:00.
