data_PCOD9563950
_publ_section_title
;
Structure prediction by ZEFSAII (Michael W. Deem and Ramdas Pophale) SiO2 
 PCOD9563950
Probable space group: P 4/M B M
;
_chemical_formula_sum "Si O2"
_cell_formula_units_Z 54
_cell_length_a 24.461028
_cell_length_b 24.461028
_cell_length_c 5.237885
_cell_angle_alpha 90.000000
_cell_angle_beta 90.000000
_cell_angle_gamma 90.000000
_cell_volume 3134.046015
_symmetry_space_group_name_H-M "P 4/M B M"
_symmetry_group_IT_number 127
_symmetry_cell_setting 'tetragonal'
loop_
_space_group_symop_operation_xyz
x,y,z
-y,x,z
-x,-y,z
y,-x,z
1/2+x,1/2-y,-z
1/2-x,1/2+y,-z
1/2+y,1/2+x,-z
1/2-y,1/2-x,-z
-x,-y,-z
y,-x,-z
x,y,-z
-y,x,-z
1/2-x,1/2+y,z
1/2+x,1/2-y,z
1/2-y,1/2-x,z
1/2+y,1/2+x,z
loop_
_atom_site_type_symbol
_atom_site_label
_atom_site_fract_x
_atom_site_fract_y
_atom_site_fract_z
Si Si1 0.661313 0.251102 0.500000
Si Si2 0.557331 0.057331 0.500000
Si Si3 0.589528 0.479902 0.500000
Si Si4 0.500000 0.000000 0.000000
Si Si5 0.373126 0.685694 0.000000
Si Si6 0.952131 0.687435 0.500000
Si Si7 0.249552 0.986913 0.000000
Si Si8 0.442726 0.349014 0.000000
O O1 0.716720 0.216720 0.500000
O O2 0.653957 0.288071 0.749589
O O3 0.610567 0.208583 0.500000
O O4 0.533128 0.033128 0.765783
O O5 0.622382 0.046434 0.500000
O O6 0.563014 0.539644 0.500000
O O7 0.624904 0.469863 0.249929
O O8 0.436407 0.705751 0.000000
O O9 0.364621 0.620951 0.000000
O O10 0.979647 0.713534 0.249741
O O11 0.214854 0.042411 0.000000
#
# Coordination Sequence:
#
# PCOD9563950 Si02
#       8
#     8   4   8   2   8   8   8   8
#     4  10  19  35  55  86 109 135 177 234 293 344
#     4  11  20  40  60  94 126 150 176 226 290 352
#     4  11  22  34  52  73 101 152 205 242 289 334
#     4  10  24  34  60  98 124 146 180 202 264 362
#     4  10  21  33  53  80 109 142 185 231 288 333
#     4  10  20  35  60  86 115 147 178 232 286 349
#     4  10  21  34  53  85 112 147 196 231 280 340
#     4  12  22  37  53  76 117 153 184 248 287 339
#
# _framework density 17.230122999999999
#
# number of rings (size 3 to 8) (size 9 to 14) (size 15 to 20)
#    0.000    1.481    0.741    5.778    0.000    3.556 
#    0.000    0.000    0.000    0.000   38.519    0.000 
#    0.000    0.000    0.000    0.000    0.000    0.000 
#
# Total GULP energy -301138.528515 kJ/mol
# GULP energy per Si atom -5576.639417 kJ/mol
# Density = 1.719091 g / cm^3
# Si number density = 17.230123 Si / 1000 Ang^3
#
#
#
# Elastic Constant Matrix: (Units=GPa)
#
#
# Indices 1 2 3 4 5 6 
#
# 1 14.7956 109.2458 53.3767 0.0000 0.0000 0.0000
# 2 109.2458 14.7956 53.3767 0.0000 0.0000 0.0000
# 3 53.3767 53.3767 192.4481 0.0000 0.0000 0.0000
# 4 0.0000 0.0000 0.0000 30.9402 0.0000 0.0000
# 5 0.0000 0.0000 0.0000 0.0000 30.9402 0.0000
# 6 0.0000 0.0000 0.0000 0.0000 0.0000 18.8640
#
#
#
# Elastic Compliance Matrix: (Units=1/GPa)
#
#
# Indices 1 2 3 4 5 6 
#
# 1 0.000001 0.010589 -0.002937 0.000000 0.000000 0.000000
# 2 0.010589 0.000001 -0.002937 0.000000 0.000000 0.000000
# 3 -0.002937 -0.002937 0.006825 0.000000 0.000000 0.000000
# 4 0.000000 0.000000 0.000000 0.032320 0.000000 0.000000
# 5 0.000000 0.000000 0.000000 0.000000 0.032320 0.000000
# 6 0.000000 0.000000 0.000000 0.000000 0.000000 0.053011
#
#
# Mechanical properties :
#
#
# Convention : Reuss Voigt Hill
#
# Bulk Modulus (GPa) = 61.51491 72.67089 67.09290
# Shear Modulus (GPa) = 41.50439 16.55156 29.02797
#
# Velocity S-wave (km/s) = 4.91330 3.10275 4.10899
# Velocity P-wave (km/s) = 8.24420 7.42322 7.84446
#
# Compressibility (1/GPa) = 0.01625622
#
# Stress axis : x y z
#
# Youngs Moduli (GPa) = 1020262.41360 1020398.22245 146.51065
#
# Poissons Ratio (x) = -10804.55953 0.43031
# Poissons Ratio (y) = -10803.12151 0.43031
# Poissons Ratio (z) = 2996.59315 2996.99194
#
# Static dielectric constant tensor:
#      x y z
#    x 1.568510 0.000000 0.000000 
#    y 0.000000 1.568510 0.000000 
#    z 0.000000 0.000000 1.568080 
# 
# From -- ./inp_files/293.got.cif
#   From: 2010.05.17/outbox.cif.g08.bks.cpg/sg127_1_cif.got.tgz:293.got - 2010.05.20 12:03:00.
