data_PCOD9563688
_publ_section_title
;
Structure prediction by ZEFSAII (Michael W. Deem and Ramdas Pophale) SiO2 
 PCOD9563688
Probable space group: P 4/N N C
;
_chemical_formula_sum "Si O2"
_cell_formula_units_Z 52
_cell_length_a 11.751707
_cell_length_b 11.751707
_cell_length_c 14.691270
_cell_angle_alpha 90.000000
_cell_angle_beta 90.000000
_cell_angle_gamma 90.000000
_cell_volume 2028.902840
_symmetry_space_group_name_H-M "P 4/N N C"
_symmetry_group_IT_number 126
_space_group.IT_coordinate_system_code '2'
_symmetry_cell_setting 'tetragonal'
loop_
_space_group_symop_operation_xyz
x,y,z
1/2-y,x,z
1/2-x,1/2-y,z
y,1/2-x,z
x,1/2-y,1/2-z
1/2-x,y,1/2-z
y,x,1/2-z
1/2-y,1/2-x,1/2-z
-x,-y,-z
1/2+y,-x,-z
1/2+x,1/2+y,-z
-y,1/2+x,-z
-x,1/2+y,1/2+z
1/2+x,-y,1/2+z
-y,-x,1/2+z
1/2+y,1/2+x,1/2+z
loop_
_atom_site_type_symbol
_atom_site_label
_atom_site_fract_x
_atom_site_fract_y
_atom_site_fract_z
Si Si1 0.941626 0.088473 0.307181
Si Si2 0.915918 0.652269 0.458203
Si Si3 0.156881 0.582252 0.120659
Si Si4 0.250000 0.750000 0.500000
O O1 0.873765 0.099812 0.213027
O O2 0.942476 0.211040 0.353908
O O3 0.896522 0.991855 0.374815
O O4 0.058903 0.058903 0.250000
O O5 0.899079 0.788788 0.454668
O O6 0.978887 0.621005 0.554054
O O7 0.154228 0.692877 0.058407
#
# Coordination Sequence:
#
# PCOD9563688 Si02
#       4
#    16  16  16   4
#     4  11  26  44  74 106 144 185 241 294 357 424
#     4  11  26  48  74 105 147 191 236 292 360 431
#     4  11  25  46  71 108 140 188 237 301 355 417
#     4  12  24  42  72 100 138 184 240 302 340 424
#
# _framework density 25.629614
#
# number of rings (size 3 to 8) (size 9 to 14) (size 15 to 20)
#    0.000    0.923    3.077    1.846    4.308    8.615 
#    0.000    1.538    0.000    7.385    0.000    0.000 
#    0.000    0.000    0.000    0.000    0.000    0.000 
#
# Total GULP energy -290486.346954 kJ/mol
# GULP energy per Si atom -5586.275903 kJ/mol
# Density = 2.557128 g / cm^3
# Si number density = 25.629614 Si / 1000 Ang^3
#
#
#
# Elastic Constant Matrix: (Units=GPa)
#
#
# Indices 1 2 3 4 5 6 
#
# 1 162.7917 30.4018 80.9772 0.0000 0.0000 0.0000
# 2 30.4018 162.7917 80.9772 0.0000 0.0000 0.0000
# 3 80.9772 80.9772 230.2665 0.0000 0.0000 0.0000
# 4 0.0000 0.0000 0.0000 32.3017 0.0000 0.0000
# 5 0.0000 0.0000 0.0000 0.0000 32.3017 0.0000
# 6 0.0000 0.0000 0.0000 0.0000 0.0000 23.8535
#
#
#
# Elastic Compliance Matrix: (Units=1/GPa)
#
#
# Indices 1 2 3 4 5 6 
#
# 1 0.007447 -0.000107 -0.002581 0.000000 0.000000 0.000000
# 2 -0.000107 0.007447 -0.002581 0.000000 0.000000 0.000000
# 3 -0.002581 -0.002581 0.006158 0.000000 0.000000 0.000000
# 4 0.000000 0.000000 0.000000 0.030958 0.000000 0.000000
# 5 0.000000 0.000000 0.000000 0.000000 0.030958 0.000000
# 6 0.000000 0.000000 0.000000 0.000000 0.000000 0.041923
#
#
# Mechanical properties :
#
#
# Convention : Reuss Voigt Hill
#
# Bulk Modulus (GPa) = 95.11733 104.50694 99.81213
# Shear Modulus (GPa) = 35.98844 41.92428 38.95636
#
# Velocity S-wave (km/s) = 3.75130 4.04886 3.90291
# Velocity P-wave (km/s) = 7.48036 7.91973 7.70318
#
# Compressibility (1/GPa) = 0.01051333
#
# Stress axis : x y z
#
# Youngs Moduli (GPa) = 134.28707 134.28707 162.38308
#
# Poissons Ratio (x) = 0.01433 0.41915
# Poissons Ratio (y) = 0.01433 0.41915
# Poissons Ratio (z) = 0.34663 0.34663
#
# Static dielectric constant tensor:
#      x y z
#    x 2.452600 0.000000 0.000000 
#    y 0.000000 2.452600 0.000000 
#    z 0.000000 0.000000 2.356950 
# 
# From -- ./inp_files/3397.got.cif
#   From: 2010.05.17/outbox.cif.g08.bks.cpg/sg126_2_cif.got.tgz:3397.got - 2010.05.20 11:58:20.
