data_PCOD9563821
_publ_section_title
;
Structure prediction by ZEFSAII (Michael W. Deem and Ramdas Pophale) SiO2 
 PCOD9563821
Probable space group: P 4/M B M
;
_chemical_formula_sum "Si O2"
_cell_formula_units_Z 104
_cell_length_a 18.722292
_cell_length_b 18.722292
_cell_length_c 16.472148
_cell_angle_alpha 90.000000
_cell_angle_beta 90.000000
_cell_angle_gamma 90.000000
_cell_volume 5773.886792
_symmetry_space_group_name_H-M "P 4/M B M"
_symmetry_group_IT_number 127
_symmetry_cell_setting 'tetragonal'
loop_
_space_group_symop_operation_xyz
x,y,z
-y,x,z
-x,-y,z
y,-x,z
1/2+x,1/2-y,-z
1/2-x,1/2+y,-z
1/2+y,1/2+x,-z
1/2-y,1/2-x,-z
-x,-y,-z
y,-x,-z
x,y,-z
-y,x,-z
1/2-x,1/2+y,z
1/2+x,1/2-y,z
1/2-y,1/2-x,z
1/2+y,1/2+x,z
loop_
_atom_site_type_symbol
_atom_site_label
_atom_site_fract_x
_atom_site_fract_y
_atom_site_fract_z
Si Si1 0.007896 0.119639 0.000000
Si Si2 0.713858 0.332299 0.232429
Si Si3 0.881875 0.004239 0.664341
Si Si4 0.247638 0.430114 0.588619
Si Si5 0.093807 0.292753 0.763360
Si Si6 0.283337 0.663505 0.413175
Si Si7 0.017110 0.804011 0.166973
O O1 0.935792 0.072835 0.000000
O O2 0.008098 0.165264 0.081840
O O3 0.784620 0.284620 0.220453
O O4 0.648641 0.275393 0.231411
O O5 0.716243 0.368203 0.322598
O O6 0.704544 0.397467 0.171286
O O7 0.812830 0.016603 0.609136
O O8 0.934266 0.071242 0.648676
O O9 0.857197 0.003377 0.758373
O O10 0.215764 0.444295 0.500000
O O11 0.199425 0.428022 0.668718
O O12 0.284123 0.351812 0.585708
O O13 0.138729 0.361272 0.790201
O O14 0.024614 0.268993 0.812851
O O15 0.284650 0.623700 0.500000
O O16 0.213791 0.713791 0.413735
#
# Coordination Sequence:
#
# PCOD9563821 Si02
#       7
#     8  16  16  16  16  16  16
#     4  11  22  34  52  78 106 135 168 202 240 303
#     4   9  17  31  51  74  99 129 167 210 253 296
#     4  10  19  29  41  59  90 132 169 200 240 295
#     4   9  16  25  39  60  88 125 166 201 234 280
#     4   9  18  32  50  71  97 130 168 211 255 300
#     4   8  13  23  41  63  87 119 162 208 246 280
#     4  11  20  34  52  71  96 128 166 208 257 308
#
# _framework density 18.012129999999999
#
# number of rings (size 3 to 8) (size 9 to 14) (size 15 to 20)
#    0.000    2.538    0.000    6.000    0.000    2.769 
#    0.000    6.154    0.000    3.231    0.000    0.000 
#    0.000    1.231    0.000    9.385    0.000    0.462 
#
# Total GULP energy -579767.575595 kJ/mol
# GULP energy per Si atom -5574.688227 kJ/mol
# Density = 1.797113 g / cm^3
# Si number density = 18.012130 Si / 1000 Ang^3
#
#
#
# Elastic Constant Matrix: (Units=GPa)
#
#
# Indices 1 2 3 4 5 6 
#
# 1 23.6338 -0.4797 -6.3613 0.0000 0.0000 0.0000
# 2 -0.4797 23.6338 -6.3613 0.0000 0.0000 0.0000
# 3 -6.3613 -6.3613 71.5255 0.0000 0.0000 0.0000
# 4 0.0000 0.0000 0.0000 10.3861 0.0000 0.0000
# 5 0.0000 0.0000 0.0000 0.0000 10.3861 0.0000
# 6 0.0000 0.0000 0.0000 0.0000 0.0000 17.0985
#
#
#
# Elastic Compliance Matrix: (Units=1/GPa)
#
#
# Indices 1 2 3 4 5 6 
#
# 1 0.043439 0.001969 0.004038 0.000000 0.000000 0.000000
# 2 0.001969 0.043439 0.004038 0.000000 0.000000 0.000000
# 3 0.004038 0.004038 0.014699 0.000000 0.000000 0.000000
# 4 0.000000 0.000000 0.000000 0.096282 0.000000 0.000000
# 5 0.000000 0.000000 0.000000 0.000000 0.096282 0.000000
# 6 0.000000 0.000000 0.000000 0.000000 0.000000 0.058485
#
#
# Mechanical properties :
#
#
# Convention : Reuss Voigt Hill
#
# Bulk Modulus (GPa) = 8.21902 10.26540 9.24221
# Shear Modulus (GPa) = 13.40153 16.37386 14.88770
#
# Velocity S-wave (km/s) = 2.73065 3.01831 2.87807
# Velocity P-wave (km/s) = 3.80984 4.22593 4.02327
#
# Compressibility (1/GPa) = 0.12166903
#
# Stress axis : x y z
#
# Youngs Moduli (GPa) = 23.02069 23.02069 68.03017
#
# Poissons Ratio (x) = -0.04532 -0.27474
# Poissons Ratio (y) = -0.04532 -0.27474
# Poissons Ratio (z) = -0.09297 -0.09297
#
# Static dielectric constant tensor:
#      x y z
#    x 1.638050 0.000000 0.000000 
#    y 0.000000 1.638050 0.000000 
#    z 0.000000 0.000000 1.636940 
# 
# From -- ./inp_files/4601.got.cif
#   From: 2010.05.17/outbox.cif.g08.bks.cpg/sg127_3_cif.got.tgz:4601.got - 2010.05.20 12:03:00.
