data_PCOD9563479
_publ_section_title
;
Structure prediction by ZEFSAII (Michael W. Deem and Ramdas Pophale) SiO2 
 PCOD9563479
Probable space group: P 4/N N C
;
_chemical_formula_sum "Si O2"
_cell_formula_units_Z 120
_cell_length_a 17.642766
_cell_length_b 17.642766
_cell_length_c 19.042747
_cell_angle_alpha 90.000000
_cell_angle_beta 90.000000
_cell_angle_gamma 90.000000
_cell_volume 5927.382389
_symmetry_space_group_name_H-M "P 4/N N C"
_symmetry_group_IT_number 126
_space_group.IT_coordinate_system_code '2'
_symmetry_cell_setting 'tetragonal'
loop_
_space_group_symop_operation_xyz
x,y,z
1/2-y,x,z
1/2-x,1/2-y,z
y,1/2-x,z
x,1/2-y,1/2-z
1/2-x,y,1/2-z
y,x,1/2-z
1/2-y,1/2-x,1/2-z
-x,-y,-z
1/2+y,-x,-z
1/2+x,1/2+y,-z
-y,1/2+x,-z
-x,1/2+y,1/2+z
1/2+x,-y,1/2+z
-y,-x,1/2+z
1/2+y,1/2+x,1/2+z
loop_
_atom_site_type_symbol
_atom_site_label
_atom_site_fract_x
_atom_site_fract_y
_atom_site_fract_z
Si Si1 0.253765 0.662971 0.111650
Si Si2 0.474645 0.959129 0.582227
Si Si3 0.046086 0.921674 0.760473
Si Si4 0.418625 0.103974 0.991692
Si Si5 0.250000 0.567502 0.250000
Si Si6 0.167213 0.046910 0.714551
Si Si7 0.454695 0.273010 0.943059
Si Si8 0.109217 0.843733 0.016423
O O1 0.250000 0.750000 0.132344
O O2 0.236176 0.615117 0.179684
O O3 0.334661 0.639396 0.079573
O O4 0.197124 0.653034 0.046671
O O5 0.445151 0.927984 0.655319
O O6 0.563225 0.947772 0.563377
O O7 0.429918 0.914458 0.521166
O O8 0.448650 0.044935 0.570192
O O9 0.032878 0.834403 0.738762
O O10 0.115122 0.970345 0.724518
O O11 0.970963 0.970963 0.750000
O O12 0.438821 0.187814 0.967088
O O13 0.329070 0.092543 0.992775
O O14 0.250000 0.037010 0.750000
O O15 0.114575 0.114575 0.750000
O O16 0.196009 0.063428 0.635058
O O17 0.543047 0.289068 0.956533
#
# Coordination Sequence:
#
# PCOD9563479 Si02
#       8
#    16  16  16  16   8  16  16  16
#     4  12  23  39  59  98 134 181 213 275 336 416
#     4  10  21  42  63  94 122 174 219 279 329 412
#     4  11  24  44  67  96 134 179 231 283 356 431
#     4  10  22  37  63  86 123 160 217 276 328 385
#     4  12  27  42  66  99 138 174 226 290 358 429
#     4  11  23  39  62  93 138 186 230 282 341 417
#     4  11  22  38  59  93 117 172 218 275 328 396
#     4  11  21  38  65  85 130 168 226 262 333 398
#
# _framework density 20.245024000000001
#
# number of rings (size 3 to 8) (size 9 to 14) (size 15 to 20)
#    0.000    1.067    2.667    5.000    0.000    5.733 
#    0.000    1.333    0.000    0.200    0.000    0.000 
#    0.000    0.000    0.000    0.000    0.000    0.000 
#
# Total GULP energy -668861.701416 kJ/mol
# GULP energy per Si atom -5573.847512 kJ/mol
# Density = 2.019895 g / cm^3
# Si number density = 20.245024 Si / 1000 Ang^3
#
#
#
# Elastic Constant Matrix: (Units=GPa)
#
#
# Indices 1 2 3 4 5 6 
#
# 1 112.8291 39.6708 9.9684 0.0000 0.0000 0.0000
# 2 39.6708 112.8291 9.9684 0.0000 0.0000 0.0000
# 3 9.9684 9.9684 42.8115 0.0000 0.0000 0.0000
# 4 0.0000 0.0000 0.0000 38.0857 0.0000 0.0000
# 5 0.0000 0.0000 0.0000 0.0000 38.0857 0.0000
# 6 0.0000 0.0000 0.0000 0.0000 0.0000 -30.9010
#
#
#
# Elastic Compliance Matrix: (Units=1/GPa)
#
#
# Indices 1 2 3 4 5 6 
#
# 1 0.010216 -0.003453 -0.001575 0.000000 0.000000 0.000000
# 2 -0.003453 0.010216 -0.001575 0.000000 0.000000 0.000000
# 3 -0.001575 -0.001575 0.024092 0.000000 0.000000 0.000000
# 4 0.000000 0.000000 0.000000 0.026257 0.000000 0.000000
# 5 0.000000 0.000000 0.000000 0.000000 0.026257 0.000000
# 6 0.000000 0.000000 0.000000 0.000000 0.000000 -0.032361
#
#
# Mechanical properties :
#
#
# Convention : Reuss Voigt Hill
#
# Bulk Modulus (GPa) = 31.92959 43.07612 37.50286
# Shear Modulus (GPa) = 56.61229 22.97822 39.79526
#
# Velocity S-wave (km/s) = 5.29379 3.37264 4.43841
# Velocity P-wave (km/s) = 7.29188 6.04068 6.69557
#
# Compressibility (1/GPa) = 0.03131891
#
# Stress axis : x y z
#
# Youngs Moduli (GPa) = 97.88449 97.88449 41.50833
#
# Poissons Ratio (x) = 0.33798 0.06537
# Poissons Ratio (y) = 0.33798 0.06537
# Poissons Ratio (z) = 0.15415 0.15415
#
# Static dielectric constant tensor:
#      x y z
#    x 1.769990 0.000000 0.000000 
#    y 0.000000 1.769990 0.000000 
#    z 0.000000 0.000000 1.807690 
# 
# From -- ./inp_files/5483.got.cif
#   From: 2010.05.17/outbox.cif.g08.bks.cpg/sg126_3_cif.got.tgz:5483.got - 2010.05.20 11:58:20.
