data_PCOD9563264
_publ_section_title
;
Structure prediction by ZEFSAII (Michael W. Deem and Ramdas Pophale) SiO2 
 PCOD9563264
Probable space group: P 4/N B M
;
_chemical_formula_sum "Si O2"
_cell_formula_units_Z 24
_cell_length_a 14.170332
_cell_length_b 14.170332
_cell_length_c 4.630992
_cell_angle_alpha 90.000000
_cell_angle_beta 90.000000
_cell_angle_gamma 90.000000
_cell_volume 929.895363
_symmetry_space_group_name_H-M "P 4/N B M"
_symmetry_group_IT_number 125
_space_group.IT_coordinate_system_code '2'
_symmetry_cell_setting 'tetragonal'
loop_
_space_group_symop_operation_xyz
x,y,z
1/2-y,x,z
1/2-x,1/2-y,z
y,1/2-x,z
x,1/2-y,-z
1/2-x,y,-z
y,x,-z
1/2-y,1/2-x,-z
-x,-y,-z
1/2+y,-x,-z
1/2+x,1/2+y,-z
-y,1/2+x,-z
-x,1/2+y,z
1/2+x,-y,z
-y,-x,z
1/2+y,1/2+x,z
loop_
_atom_site_type_symbol
_atom_site_label
_atom_site_fract_x
_atom_site_fract_y
_atom_site_fract_z
Si Si1 0.396063 0.750000 0.000000
Si Si2 0.925899 0.835316 0.715364
O O1 0.469772 0.806727 0.194679
O O2 0.326527 0.673474 0.143629
O O3 0.892514 0.750000 0.500000
O O4 0.922488 0.922488 0.500000
O O5 0.864528 0.864528 0.000000
#
# Coordination Sequence:
#
# PCOD9563264 Si02
#       2
#     8  16
#     4  11  28  54  81 114 160 214 269 328 398 473
#     4  12  25  52  80 118 159 209 262 330 396 472
#
# _framework density 25.809356000000001
#
# number of rings (size 3 to 8) (size 9 to 14) (size 15 to 20)
#    0.000    0.333    6.667    0.000    0.000    6.000 
#   12.000    3.333    0.000    0.000    0.000    0.000 
#    0.000    0.000    0.000    0.000    0.000    0.000 
#
# Total GULP energy -133800.380307 kJ/mol
# GULP energy per Si atom -5575.015846 kJ/mol
# Density = 2.575061 g / cm^3
# Si number density = 25.809356 Si / 1000 Ang^3
#
#
#
# Elastic Constant Matrix: (Units=GPa)
#
#
# Indices 1 2 3 4 5 6 
#
# 1 158.0832 129.8134 79.7790 0.0000 0.0000 0.0000
# 2 129.8134 158.0832 79.7790 0.0000 0.0000 0.0000
# 3 79.7790 79.7790 175.1335 0.0000 0.0000 0.0000
# 4 0.0000 0.0000 0.0000 17.2479 0.0000 0.0000
# 5 0.0000 0.0000 0.0000 0.0000 17.2479 0.0000
# 6 0.0000 0.0000 0.0000 0.0000 0.0000 72.1670
#
#
#
# Elastic Compliance Matrix: (Units=1/GPa)
#
#
# Indices 1 2 3 4 5 6 
#
# 1 0.020010 -0.015363 -0.002117 0.000000 0.000000 0.000000
# 2 -0.015363 0.020010 -0.002117 0.000000 0.000000 0.000000
# 3 -0.002117 -0.002117 0.007638 0.000000 0.000000 0.000000
# 4 0.000000 0.000000 0.000000 0.057978 0.000000 0.000000
# 5 0.000000 0.000000 0.000000 0.000000 0.057978 0.000000
# 6 0.000000 0.000000 0.000000 0.000000 0.000000 0.013857
#
#
# Mechanical properties :
#
#
# Convention : Reuss Voigt Hill
#
# Bulk Modulus (GPa) = 118.13584 118.89362 118.51473
# Shear Modulus (GPa) = 22.78046 34.79446 28.78746
#
# Velocity S-wave (km/s) = 2.97415 3.67568 3.34337
# Velocity P-wave (km/s) = 7.59381 8.01126 7.80533
#
# Compressibility (1/GPa) = 0.00846483
#
# Stress axis : x y z
#
# Youngs Moduli (GPa) = 49.97511 49.97511 130.91839
#
# Poissons Ratio (x) = 0.76779 0.27711
# Poissons Ratio (y) = 0.76779 0.27711
# Poissons Ratio (z) = 0.10578 0.10578
#
# Static dielectric constant tensor:
#      x y z
#    x 2.091760 0.000000 0.000000 
#    y 0.000000 2.091760 0.000000 
#    z 0.000000 0.000000 2.112240 
# 
# From -- ./inp_files/148.got.cif
#   From: 2010.05.17/outbox.cif.g08.bks.cpg/sg125_1_cif.got.tgz:148.got - 2010.05.20 11:54:10.
