data_PCOD9563818
_publ_section_title
;
Structure prediction by ZEFSAII (Michael W. Deem and Ramdas Pophale) SiO2 
 PCOD9563818
Probable space group: P 4/M B M
;
_chemical_formula_sum "Si O2"
_cell_formula_units_Z 96
_cell_length_a 24.757803
_cell_length_b 24.757803
_cell_length_c 7.332459
_cell_angle_alpha 90.000000
_cell_angle_beta 90.000000
_cell_angle_gamma 90.000000
_cell_volume 4494.422014
_symmetry_space_group_name_H-M "P 4/M B M"
_symmetry_group_IT_number 127
_symmetry_cell_setting 'tetragonal'
loop_
_space_group_symop_operation_xyz
x,y,z
-y,x,z
-x,-y,z
y,-x,z
1/2+x,1/2-y,-z
1/2-x,1/2+y,-z
1/2+y,1/2+x,-z
1/2-y,1/2-x,-z
-x,-y,-z
y,-x,-z
x,y,-z
-y,x,-z
1/2-x,1/2+y,z
1/2+x,1/2-y,z
1/2-y,1/2-x,z
1/2+y,1/2+x,z
loop_
_atom_site_type_symbol
_atom_site_label
_atom_site_fract_x
_atom_site_fract_y
_atom_site_fract_z
Si Si1 0.300898 0.573088 0.276596
Si Si2 0.131628 0.282928 0.277632
Si Si3 0.469595 0.418074 0.721872
Si Si4 0.586567 0.000941 0.219474
Si Si5 0.694996 0.719360 0.278067
Si Si6 0.788213 0.510870 0.286348
O O1 0.301343 0.573898 0.500000
O O2 0.359873 0.551904 0.219207
O O3 0.288547 0.634015 0.217165
O O4 0.253233 0.533383 0.214080
O O5 0.130698 0.283335 0.500000
O O6 0.162725 0.337276 0.221364
O O7 0.169125 0.232787 0.223761
O O8 0.070855 0.280315 0.209900
O O9 0.530981 0.432464 0.777326
O O10 0.469459 0.417661 0.500000
O O11 0.555579 0.055579 0.281077
O O12 0.648650 0.996703 0.272903
O O13 0.549244 0.950756 0.279628
O O14 0.585405 0.001375 0.000000
O O15 0.694550 0.719898 0.500000
O O16 0.726226 0.773775 0.220814
O O17 0.775146 0.514828 0.500000
#
# Coordination Sequence:
#
# PCOD9563818 Si02
#       6
#    16  16  16  16  16  16
#     4   9  17  24  35  58  88 122 152 187 233 277
#     4   8  14  24  38  56  81 115 149 182 223 270
#     4   8  14  23  34  50  78 121 164 194 226 273
#     4   9  19  36  54  69  89 122 159 188 222 278
#     4   8  14  24  35  48  75 117 154 179 214 271
#     4  10  19  28  43  72 100 118 146 194 242 275
#
# _framework density 21.359808000000001
#
# number of rings (size 3 to 8) (size 9 to 14) (size 15 to 20)
#    0.000    3.333    0.000    2.500    2.333    2.000 
#    0.000    2.500    0.000    0.000    0.000    1.167 
#    0.000    4.000    0.000    1.833    0.000    1.667 
#
# Total GULP energy -535852.107118 kJ/mol
# GULP energy per Si atom -5581.792782 kJ/mol
# Density = 2.131119 g / cm^3
# Si number density = 21.359808 Si / 1000 Ang^3
#
#
#
# Elastic Constant Matrix: (Units=GPa)
#
#
# Indices 1 2 3 4 5 6 
#
# 1 165.1701 176.5042 -0.2913 0.0000 0.0000 0.0000
# 2 176.5042 165.1701 -0.2913 0.0000 0.0000 0.0000
# 3 -0.2913 -0.2913 80.8675 0.0000 0.0000 0.0000
# 4 0.0000 0.0000 0.0000 13.4073 0.0000 0.0000
# 5 0.0000 0.0000 0.0000 0.0000 13.4073 0.0000
# 6 0.0000 0.0000 0.0000 0.0000 0.0000 18.9370
#
#
#
# Elastic Compliance Matrix: (Units=1/GPa)
#
#
# Indices 1 2 3 4 5 6 
#
# 1 -0.042651 0.045578 0.000011 0.000000 0.000000 0.000000
# 2 0.045578 -0.042651 0.000011 0.000000 0.000000 0.000000
# 3 0.000011 0.000011 0.012366 0.000000 0.000000 0.000000
# 4 0.000000 0.000000 0.000000 0.074586 0.000000 0.000000
# 5 0.000000 0.000000 0.000000 0.000000 0.074586 0.000000
# 6 0.000000 0.000000 0.000000 0.000000 0.000000 0.052807
#
#
# Mechanical properties :
#
#
# Convention : Reuss Voigt Hill
#
# Bulk Modulus (GPa) = 54.75935 84.78342 69.77139
# Shear Modulus (GPa) = 113.81346 24.83607 69.32477
#
# Velocity S-wave (km/s) = 7.30750 3.41361 5.70317
# Velocity P-wave (km/s) = 9.84336 7.43748 8.72376
#
# Compressibility (1/GPa) = 0.01826172
#
# Stress axis : x y z
#
# Youngs Moduli (GPa) = -23.44598 -23.44598 80.86701
#
# Poissons Ratio (x) = 1.06862 -0.00085
# Poissons Ratio (y) = 1.06862 -0.00085
# Poissons Ratio (z) = 0.00025 0.00025
#
# Static dielectric constant tensor:
#      x y z
#    x 1.733770 0.000000 0.000000 
#    y 0.000000 1.733770 0.000000 
#    z 0.000000 0.000000 1.822110 
# 
# From -- ./inp_files/1970.got.cif
#   From: 2010.05.17/outbox.cif.g08.bks.cpg/sg127_1_cif.got.tgz:1970.got - 2010.05.20 12:03:00.
