data_PCOD9563562
_publ_section_title
;
Structure prediction by ZEFSAII (Michael W. Deem and Ramdas Pophale) SiO2 
 PCOD9563562
Probable space group: P 4/N N C
;
_chemical_formula_sum "Si O2"
_cell_formula_units_Z 72
_cell_length_a 10.849003
_cell_length_b 10.849003
_cell_length_c 26.592892
_cell_angle_alpha 90.000000
_cell_angle_beta 90.000000
_cell_angle_gamma 90.000000
_cell_volume 3130.006420
_symmetry_space_group_name_H-M "P 4/N N C"
_symmetry_group_IT_number 126
_space_group.IT_coordinate_system_code '2'
_symmetry_cell_setting 'tetragonal'
loop_
_space_group_symop_operation_xyz
x,y,z
1/2-y,x,z
1/2-x,1/2-y,z
y,1/2-x,z
x,1/2-y,1/2-z
1/2-x,y,1/2-z
y,x,1/2-z
1/2-y,1/2-x,1/2-z
-x,-y,-z
1/2+y,-x,-z
1/2+x,1/2+y,-z
-y,1/2+x,-z
-x,1/2+y,1/2+z
1/2+x,-y,1/2+z
-y,-x,1/2+z
1/2+y,1/2+x,1/2+z
loop_
_atom_site_type_symbol
_atom_site_label
_atom_site_fract_x
_atom_site_fract_y
_atom_site_fract_z
Si Si1 0.360004 0.078684 0.420161
Si Si2 0.925794 0.349136 0.985398
Si Si3 0.958167 0.974381 0.816865
Si Si4 0.502564 0.250000 0.250000
Si Si5 0.341203 0.062070 0.620523
O O1 0.412396 0.214365 0.415695
O O2 0.405627 0.005236 0.372318
O O3 0.391099 0.026305 0.474237
O O4 0.974584 0.363004 0.928363
O O5 0.906758 0.204135 0.998284
O O6 0.940528 0.834273 0.794759
O O7 0.869234 0.054486 0.780351
O O8 0.101918 0.001092 0.828538
O O9 0.407331 0.195885 0.618768
#
# Coordination Sequence:
#
# PCOD9563562 Si02
#       5
#    16  16  16   8  16
#     4  11  21  34  61  97 132 181 225 278 350 427
#     4  11  24  41  64 101 147 189 239 295 353 429
#     4  11  22  42  70 103 140 179 229 301 369 435
#     4  10  24  43  69 104 140 172 231 307 374 418
#     4  11  25  47  72 100 144 198 244 292 359 448
#
# _framework density 23.003146000000001
#
# number of rings (size 3 to 8) (size 9 to 14) (size 15 to 20)
#    0.000    1.111    2.222    4.000    0.000    8.000 
#    0.000    5.556    0.000    5.333    0.000    0.000 
#    0.000    0.000    0.000    0.000    0.000    0.000 
#
# Total GULP energy -400997.292758 kJ/mol
# GULP energy per Si atom -5569.406844 kJ/mol
# Density = 2.295079 g / cm^3
# Si number density = 23.003146 Si / 1000 Ang^3
#
#
#
# Elastic Constant Matrix: (Units=GPa)
#
#
# Indices 1 2 3 4 5 6 
#
# 1 101.5637 36.9776 48.6532 0.0000 0.0000 0.0000
# 2 36.9776 101.5637 48.6532 0.0000 0.0000 0.0000
# 3 48.6532 48.6532 143.8049 0.0000 0.0000 0.0000
# 4 0.0000 0.0000 0.0000 47.0673 0.0000 0.0000
# 5 0.0000 0.0000 0.0000 0.0000 47.0673 0.0000
# 6 0.0000 0.0000 0.0000 0.0000 0.0000 37.5046
#
#
#
# Elastic Compliance Matrix: (Units=1/GPa)
#
#
# Indices 1 2 3 4 5 6 
#
# 1 0.012476 -0.003008 -0.003203 0.000000 0.000000 0.000000
# 2 -0.003008 0.012476 -0.003203 0.000000 0.000000 0.000000
# 3 -0.003203 -0.003203 0.009121 0.000000 0.000000 0.000000
# 4 0.000000 0.000000 0.000000 0.021246 0.000000 0.000000
# 5 0.000000 0.000000 0.000000 0.000000 0.021246 0.000000
# 6 0.000000 0.000000 0.000000 0.000000 0.000000 0.026663
#
#
# Mechanical properties :
#
#
# Convention : Reuss Voigt Hill
#
# Bulk Modulus (GPa) = 65.59888 68.38894 66.99391
# Shear Modulus (GPa) = 39.32734 40.50438 39.91586
#
# Velocity S-wave (km/s) = 4.13928 4.20076 4.17013
# Velocity P-wave (km/s) = 7.17106 7.30228 7.23697
#
# Compressibility (1/GPa) = 0.01524416
#
# Stress axis : x y z
#
# Youngs Moduli (GPa) = 80.15669 80.15669 109.63258
#
# Poissons Ratio (x) = 0.24108 0.35118
# Poissons Ratio (y) = 0.24108 0.35118
# Poissons Ratio (z) = 0.25676 0.25676
#
# Static dielectric constant tensor:
#      x y z
#    x 1.950620 0.000000 0.000000 
#    y 0.000000 1.950620 0.000000 
#    z 0.000000 0.000000 1.880890 
# 
# From -- ./inp_files/6136.got.cif
#   From: 2010.05.17/outbox.cif.g08.bks.cpg/sg126_4_cif.got.tgz:6136.got - 2010.05.20 11:58:20.
