data_PCOD9563827
_publ_section_title
;
Structure prediction by ZEFSAII (Michael W. Deem and Ramdas Pophale) SiO2 
 PCOD9563827
Probable space group: P 4/M B M
;
_chemical_formula_sum "Si O2"
_cell_formula_units_Z 72
_cell_length_a 20.058497
_cell_length_b 20.058497
_cell_length_c 7.268772
_cell_angle_alpha 90.000000
_cell_angle_beta 90.000000
_cell_angle_gamma 90.000000
_cell_volume 2924.541727
_symmetry_space_group_name_H-M "P 4/M B M"
_symmetry_group_IT_number 127
_symmetry_cell_setting 'tetragonal'
loop_
_space_group_symop_operation_xyz
x,y,z
-y,x,z
-x,-y,z
y,-x,z
1/2+x,1/2-y,-z
1/2-x,1/2+y,-z
1/2+y,1/2+x,-z
1/2-y,1/2-x,-z
-x,-y,-z
y,-x,-z
x,y,-z
-y,x,-z
1/2-x,1/2+y,z
1/2+x,1/2-y,z
1/2-y,1/2-x,z
1/2+y,1/2+x,z
loop_
_atom_site_type_symbol
_atom_site_label
_atom_site_fract_x
_atom_site_fract_y
_atom_site_fract_z
Si Si1 0.446454 0.053547 0.776472
Si Si2 0.879470 0.725340 0.223617
Si Si3 0.848210 0.206889 0.795368
Si Si4 0.414463 0.563775 0.721596
Si Si5 0.705557 0.969779 0.775636
O O1 0.371661 0.034448 0.723465
O O2 0.500000 0.000000 0.713150
O O3 0.447049 0.052952 0.000000
O O4 0.846217 0.653783 0.268699
O O5 0.826415 0.781629 0.288044
O O6 0.956873 0.732804 0.282850
O O7 0.880417 0.730362 0.000000
O O8 0.894402 0.142556 0.808223
O O9 0.900852 0.259378 0.711032
O O10 0.831181 0.231280 0.000000
O O11 0.410343 0.486897 0.773486
O O12 0.409268 0.567589 0.500000
O O13 0.711029 0.968719 0.000000
#
# Coordination Sequence:
#
# PCOD9563827 Si02
#       5
#     8  16  16  16  16
#     4   9  16  26  42  62  91 129 167 206 244 286
#     4   9  17  28  42  62  93 128 158 193 245 296
#     4  10  19  29  46  71  99 125 155 198 244 292
#     4   9  18  32  48  66  92 128 166 199 234 282
#     4   9  17  27  41  64  93 125 163 200 240 290
#
# _framework density 24.619240000000001
#
# number of rings (size 3 to 8) (size 9 to 14) (size 15 to 20)
#    0.000    2.778    0.000    2.667    1.556    5.333 
#    0.000    1.111    0.000    0.667    0.000    0.000 
#    0.000    3.556    0.000    0.000    0.000    0.222 
#
# Total GULP energy -402013.248080 kJ/mol
# GULP energy per Si atom -5583.517334 kJ/mol
# Density = 2.456321 g / cm^3
# Si number density = 24.619240 Si / 1000 Ang^3
#
#
#
# Elastic Constant Matrix: (Units=GPa)
#
#
# Indices 1 2 3 4 5 6 
#
# 1 206.3592 30.8540 8.3867 0.0000 0.0000 0.0000
# 2 30.8540 206.3596 8.3867 0.0000 0.0000 0.0000
# 3 8.3867 8.3867 101.2553 0.0000 0.0000 0.0000
# 4 0.0000 0.0000 0.0000 4.7200 0.0000 0.0000
# 5 0.0000 0.0000 0.0000 0.0000 4.7202 0.0000
# 6 0.0000 0.0000 0.0000 0.0000 0.0000 80.1119
#
#
#
# Elastic Compliance Matrix: (Units=1/GPa)
#
#
# Indices 1 2 3 4 5 6 
#
# 1 0.004969 -0.000729 -0.000351 0.000000 0.000000 0.000000
# 2 -0.000729 0.004969 -0.000351 0.000000 0.000000 0.000000
# 3 -0.000351 -0.000351 0.009934 0.000000 0.000000 0.000000
# 4 0.000000 0.000000 0.000000 0.211863 0.000000 0.000000
# 5 0.000000 0.000000 0.000000 0.000000 0.211857 0.000000
# 6 0.000000 0.000000 0.000000 0.000000 0.000000 0.012483
#
#
# Mechanical properties :
#
#
# Convention : Reuss Voigt Hill
#
# Bulk Modulus (GPa) = 58.78824 67.69210 63.24017
# Shear Modulus (GPa) = 10.76179 49.00019 29.88099
#
# Velocity S-wave (km/s) = 2.09303 4.46614 3.48764
# Velocity P-wave (km/s) = 5.45636 7.35870 6.47775
#
# Compressibility (1/GPa) = 0.01701021
#
# Stress axis : x y z
#
# Youngs Moduli (GPa) = 201.24189 201.24225 100.66224
#
# Poissons Ratio (x) = 0.14664 0.03536
# Poissons Ratio (y) = 0.14664 0.03536
# Poissons Ratio (z) = 0.07068 0.07068
#
# Static dielectric constant tensor:
#      x y z
#    x 1.922290 0.000000 0.000000 
#    y 0.000000 1.922300 0.000000 
#    z 0.000000 0.000000 1.964760 
# 
# From -- ./inp_files/1552.got.cif
#   From: 2010.05.17/outbox.cif.g08.bks.cpg/sg127_1_cif.got.tgz:1552.got - 2010.05.20 12:03:00.
