data_PCOD9563176
_publ_section_title
;
Structure prediction by ZEFSAII (Michael W. Deem and Ramdas Pophale) SiO2 
 PCOD9563176
Probable space group: P 4/N B M
;
_chemical_formula_sum "Si O2"
_cell_formula_units_Z 64
_cell_length_a 15.254279
_cell_length_b 15.254279
_cell_length_c 14.796773
_cell_angle_alpha 90.000000
_cell_angle_beta 90.000000
_cell_angle_gamma 90.000000
_cell_volume 3443.105911
_symmetry_space_group_name_H-M "P 4/N B M"
_symmetry_group_IT_number 125
_space_group.IT_coordinate_system_code '2'
_symmetry_cell_setting 'tetragonal'
loop_
_space_group_symop_operation_xyz
x,y,z
1/2-y,x,z
1/2-x,1/2-y,z
y,1/2-x,z
x,1/2-y,-z
1/2-x,y,-z
y,x,-z
1/2-y,1/2-x,-z
-x,-y,-z
1/2+y,-x,-z
1/2+x,1/2+y,-z
-y,1/2+x,-z
-x,1/2+y,z
1/2+x,-y,z
-y,-x,z
1/2+y,1/2+x,z
loop_
_atom_site_type_symbol
_atom_site_label
_atom_site_fract_x
_atom_site_fract_y
_atom_site_fract_z
Si Si1 0.148386 0.997655 0.257747
Si Si2 0.850407 0.641223 0.397168
Si Si3 0.244814 0.606250 0.403599
Si Si4 0.603481 0.765217 0.896745
O O1 0.069840 0.930161 0.236024
O O2 0.217356 0.949042 0.322803
O O3 0.112562 0.078881 0.318892
O O4 0.203858 0.029641 0.171882
O O5 0.867621 0.744773 0.387096
O O6 0.879749 0.620252 0.500000
O O7 0.250000 0.557795 0.500000
O O8 0.314594 0.685407 0.415506
O O9 0.150775 0.650775 0.387822
O O10 0.658251 0.676106 0.882525
O O11 0.572815 0.750000 0.000000
#
# Coordination Sequence:
#
# PCOD9563176 Si02
#       4
#    16  16  16  16
#     4  11  21  32  53  86 118 140 174 237 294 336
#     4   9  19  35  53  72 104 154 200 230 265 327
#     4   8  16  32  50  69 103 155 199 218 246 320
#     4   9  19  40  66  81  96 138 193 230 268 339
#
# _framework density 18.587868
#
# number of rings (size 3 to 8) (size 9 to 14) (size 15 to 20)
#    0.000    2.750    0.000    3.750    3.500    2.500 
#    0.000    8.750    0.000    0.000    0.000    0.000 
#    0.000    0.000    0.000    0.000    0.000    0.000 
#
# Total GULP energy -356502.054200 kJ/mol
# GULP energy per Si atom -5570.344597 kJ/mol
# Density = 1.854556 g / cm^3
# Si number density = 18.587868 Si / 1000 Ang^3
#
#
#
# Elastic Constant Matrix: (Units=GPa)
#
#
# Indices 1 2 3 4 5 6 
#
# 1 69.5469 30.1479 69.0012 0.0000 0.0000 0.0000
# 2 30.1479 69.5468 69.0012 0.0000 0.0000 0.0000
# 3 69.0012 69.0012 151.3435 0.0000 0.0000 0.0000
# 4 0.0000 0.0000 0.0000 30.2932 0.0000 0.0000
# 5 0.0000 0.0000 0.0000 0.0000 30.2931 0.0000
# 6 0.0000 0.0000 0.0000 0.0000 0.0000 9.2768
#
#
#
# Elastic Compliance Matrix: (Units=1/GPa)
#
#
# Indices 1 2 3 4 5 6 
#
# 1 0.026286 0.000905 -0.012397 0.000000 0.000000 0.000000
# 2 0.000905 0.026287 -0.012397 0.000000 0.000000 0.000000
# 3 -0.012397 -0.012397 0.017912 0.000000 0.000000 0.000000
# 4 0.000000 0.000000 0.000000 0.033011 0.000000 0.000000
# 5 0.000000 0.000000 0.000000 0.000000 0.033011 0.000000
# 6 0.000000 0.000000 0.000000 0.000000 0.000000 0.107796
#
#
# Mechanical properties :
#
#
# Convention : Reuss Voigt Hill
#
# Bulk Modulus (GPa) = 44.04140 69.63753 56.83947
# Shear Modulus (GPa) = 16.68611 22.12507 19.40559
#
# Velocity S-wave (km/s) = 2.99940 3.45381 3.23459
# Velocity P-wave (km/s) = 5.97831 7.31098 6.67797
#
# Compressibility (1/GPa) = 0.02270591
#
# Stress axis : x y z
#
# Youngs Moduli (GPa) = 38.04234 38.04231 55.82857
#
# Poissons Ratio (x) = -0.03443 0.69212
# Poissons Ratio (y) = -0.03443 0.69213
# Poissons Ratio (z) = 0.47162 0.47162
#
# Static dielectric constant tensor:
#      x y z
#    x 1.671360 0.000000 0.000000 
#    y 0.000000 1.671360 0.000000 
#    z 0.000000 0.000000 1.676630 
# 
# From -- ./inp_files/4605.got.cif
#   From: 2010.05.17/outbox.cif.g08.bks.cpg/sg125_3_cif.got.tgz:4605.got - 2010.05.20 11:54:10.
