data_PCOD9563964
_publ_section_title
;
Structure prediction by ZEFSAII (Michael W. Deem and Ramdas Pophale) SiO2 
 PCOD9563964
Probable space group: P 4/M B M
;
_chemical_formula_sum "Si O2"
_cell_formula_units_Z 120
_cell_length_a 20.360232
_cell_length_b 20.360232
_cell_length_c 15.189577
_cell_angle_alpha 90.000000
_cell_angle_beta 90.000000
_cell_angle_gamma 90.000000
_cell_volume 6296.672775
_symmetry_space_group_name_H-M "P 4/M B M"
_symmetry_group_IT_number 127
_symmetry_cell_setting 'tetragonal'
loop_
_space_group_symop_operation_xyz
x,y,z
-y,x,z
-x,-y,z
y,-x,z
1/2+x,1/2-y,-z
1/2-x,1/2+y,-z
1/2+y,1/2+x,-z
1/2-y,1/2-x,-z
-x,-y,-z
y,-x,-z
x,y,-z
-y,x,-z
1/2-x,1/2+y,z
1/2+x,1/2-y,z
1/2-y,1/2-x,z
1/2+y,1/2+x,z
loop_
_atom_site_type_symbol
_atom_site_label
_atom_site_fract_x
_atom_site_fract_y
_atom_site_fract_z
Si Si1 0.652669 0.042644 0.315899
Si Si2 0.057064 0.911243 0.639065
Si Si3 0.803303 0.411724 0.233429
Si Si4 0.541348 0.690999 0.099914
Si Si5 0.871534 0.090940 0.822298
Si Si6 0.741982 0.654978 0.288556
Si Si7 0.108744 0.503694 0.500000
Si Si8 0.718352 0.364302 0.400925
O O1 0.588225 0.088225 0.301085
O O2 0.714789 0.091303 0.311321
O O3 0.660590 0.981037 0.251665
O O4 0.648349 0.011118 0.412432
O O5 0.074053 0.914409 0.743950
O O6 0.088958 0.845484 0.603269
O O7 0.981079 0.912502 0.612224
O O8 0.855239 0.355239 0.208566
O O9 0.747810 0.427660 0.161108
O O10 0.767636 0.387971 0.324136
O O11 0.592702 0.631040 0.102021
O O12 0.475168 0.662313 0.144025
O O13 0.529157 0.712845 0.000000
O O14 0.814461 0.133994 0.777894
O O15 0.791223 0.708778 0.249948
O O16 0.705712 0.688096 0.371517
O O17 0.074491 0.574491 0.500000
O O18 0.049780 0.450221 0.500000
O O19 0.745430 0.363818 0.500000
#
# Coordination Sequence:
#
# PCOD9563964 Si02
#       8
#    16  16  16  16  16  16   8  16
#     4  10  22  40  64  91 120 161 209 261 315 366
#     4  10  19  36  61  85 121 167 209 255 305 359
#     4  12  25  43  65  91 126 167 208 258 319 379
#     4  12  25  42  66  97 128 162 206 256 314 377
#     4  11  20  40  63  93 127 159 196 255 309 372
#     4  10  21  38  63  88 122 167 211 252 305 372
#     4   9  18  34  56  88 122 150 197 260 313 361
#     4  11  25  39  59  90 129 171 215 259 307 371
#
# _framework density 19.057683999999998
#
# number of rings (size 3 to 8) (size 9 to 14) (size 15 to 20)
#    0.000    1.267    5.333    1.200    3.733    2.933 
#    0.000    1.333    0.000    2.400    0.000    0.933 
#    0.000    0.000    0.000    0.000    0.000    0.000 
#
# Total GULP energy -669756.614883 kJ/mol
# GULP energy per Si atom -5581.305124 kJ/mol
# Density = 1.901431 g / cm^3
# Si number density = 19.057684 Si / 1000 Ang^3
#
#
#
# Elastic Constant Matrix: (Units=GPa)
#
#
# Indices 1 2 3 4 5 6 
#
# 1 -108.2422 216.1956 20.8892 0.0000 0.0000 0.0000
# 2 216.1956 -108.2273 20.8888 0.0000 0.0000 0.0000
# 3 20.8892 20.8888 102.1891 0.0000 0.0000 0.0000
# 4 0.0000 0.0000 0.0000 9.6313 0.0000 0.0000
# 5 0.0000 0.0000 0.0000 0.0000 9.6313 0.0000
# 6 0.0000 0.0000 0.0000 0.0000 0.0000 28.6086
#
#
#
# Elastic Compliance Matrix: (Units=1/GPa)
#
#
# Indices 1 2 3 4 5 6 
#
# 1 0.003488 0.006570 -0.002056 0.000000 0.000000 0.000000
# 2 0.006570 0.003488 -0.002056 0.000000 0.000000 0.000000
# 3 -0.002056 -0.002056 0.010626 0.000000 0.000000 0.000000
# 4 0.000000 0.000000 0.000000 0.103828 0.000000 0.000000
# 5 0.000000 0.000000 0.000000 0.000000 0.103828 0.000000
# 6 0.000000 0.000000 0.000000 0.000000 0.000000 0.034955
#
#
# Mechanical properties :
#
#
# Convention : Reuss Voigt Hill
#
# Bulk Modulus (GPa) = 44.40766 44.62964 44.51865
# Shear Modulus (GPa) = 19.02564 -15.24270 1.89147
#
# Velocity S-wave (km/s) = 3.16305 -2.83118 0.99732
# Velocity P-wave (km/s) = 6.05740 3.57514 4.97362
#
# Compressibility (1/GPa) = 0.02251864
#
# Stress axis : x y z
#
# Youngs Moduli (GPa) = 286.71938 286.68093 94.10568
#
# Poissons Ratio (x) = -1.88358 0.19348
# Poissons Ratio (y) = -1.88383 0.19349
# Poissons Ratio (z) = 0.58950 0.58945
#
# Static dielectric constant tensor:
#      x y z
#    x 1.672490 0.000000 0.000000 
#    y 0.000000 1.672490 0.000000 
#    z 0.000000 0.000000 1.666670 
# 
# From -- ./inp_files/4672.got.cif
#   From: 2010.05.17/outbox.cif.g08.bks.cpg/sg127_3_cif.got.tgz:4672.got - 2010.05.20 12:03:00.
