data_PCOD9563248
_publ_section_title
;
Structure prediction by ZEFSAII (Michael W. Deem and Ramdas Pophale) SiO2 
 PCOD9563248
Probable space group: P 4/N B M
;
_chemical_formula_sum "Si O2"
_cell_formula_units_Z 88
_cell_length_a 11.760811
_cell_length_b 11.760811
_cell_length_c 33.097125
_cell_angle_alpha 90.000000
_cell_angle_beta 90.000000
_cell_angle_gamma 90.000000
_cell_volume 4577.884295
_symmetry_space_group_name_H-M "P 4/N B M"
_symmetry_group_IT_number 125
_space_group.IT_coordinate_system_code '2'
_symmetry_cell_setting 'tetragonal'
loop_
_space_group_symop_operation_xyz
x,y,z
1/2-y,x,z
1/2-x,1/2-y,z
y,1/2-x,z
x,1/2-y,-z
1/2-x,y,-z
y,x,-z
1/2-y,1/2-x,-z
-x,-y,-z
1/2+y,-x,-z
1/2+x,1/2+y,-z
-y,1/2+x,-z
-x,1/2+y,z
1/2+x,-y,z
-y,-x,z
1/2+y,1/2+x,z
loop_
_atom_site_type_symbol
_atom_site_label
_atom_site_fract_x
_atom_site_fract_y
_atom_site_fract_z
Si Si1 0.785504 0.560012 0.245369
Si Si2 0.345386 0.845386 0.902392
Si Si3 0.439372 0.235503 0.047235
Si Si4 0.847263 0.347263 0.191064
Si Si5 0.787964 0.939043 0.665080
Si Si6 0.927289 0.250000 0.500000
Si Si7 0.208067 0.436822 0.578088
O O1 0.877883 0.662537 0.241800
O O2 0.804966 0.461674 0.213168
O O3 0.797080 0.507415 0.290710
O O4 0.250000 0.750000 0.901780
O O5 0.453060 0.792956 0.925692
O O6 0.372607 0.872607 0.855848
O O7 0.367514 0.350377 0.054459
O O8 0.472163 0.250000 0.000000
O O9 0.750000 0.250000 0.193789
O O10 0.664729 0.878129 0.664772
O O11 0.802293 0.998455 0.621641
O O12 0.846819 0.153182 0.481723
O O13 0.996077 0.197096 0.536784
O O14 0.119745 0.332984 0.577348
#
# Coordination Sequence:
#
# PCOD9563248 Si02
#       7
#    16   8  16   8  16   8  16
#     4   9  19  39  67  89 113 159 204 246 307 368
#     4  11  26  39  59  90 126 169 209 252 304 364
#     4   9  21  41  65  94 125 159 205 259 308 359
#     4  11  26  42  55  88 132 162 202 257 304 352
#     4   7  12  28  56  86 106 126 172 230 278 335
#     4  11  24  37  44  60 104 151 176 207 258 328
#     4   9  17  32  57  82 100 124 168 224 273 325
#
# _framework density 19.222854000000002
#
# number of rings (size 3 to 8) (size 9 to 14) (size 15 to 20)
#    0.000    2.818    0.000    3.273    3.818    4.364 
#    1.636    2.727    6.000    0.000    0.000    0.000 
#    0.000    0.000    0.000    0.000    0.000    0.000 
#
# Total GULP energy -490233.626374 kJ/mol
# GULP energy per Si atom -5570.836663 kJ/mol
# Density = 1.917910 g / cm^3
# Si number density = 19.222854 Si / 1000 Ang^3
#
#
#
# Elastic Constant Matrix: (Units=GPa)
#
#
# Indices 1 2 3 4 5 6 
#
# 1 62.7464 24.0818 61.7276 0.0000 0.0000 0.0000
# 2 24.0818 62.7464 61.7276 0.0000 0.0000 0.0000
# 3 61.7276 61.7276 160.6956 0.0000 0.0000 0.0000
# 4 0.0000 0.0000 0.0000 36.8413 0.0000 0.0000
# 5 0.0000 0.0000 0.0000 0.0000 36.8413 0.0000
# 6 0.0000 0.0000 0.0000 0.0000 0.0000 12.3784
#
#
#
# Elastic Compliance Matrix: (Units=1/GPa)
#
#
# Indices 1 2 3 4 5 6 
#
# 1 0.025620 -0.000243 -0.009748 0.000000 0.000000 0.000000
# 2 -0.000243 0.025620 -0.009748 0.000000 0.000000 0.000000
# 3 -0.009748 -0.009748 0.013712 0.000000 0.000000 0.000000
# 4 0.000000 0.000000 0.000000 0.027143 0.000000 0.000000
# 5 0.000000 0.000000 0.000000 0.000000 0.027143 0.000000
# 6 0.000000 0.000000 0.000000 0.000000 0.000000 0.080786
#
#
# Mechanical properties :
#
#
# Convention : Reuss Voigt Hill
#
# Bulk Modulus (GPa) = 39.25583 64.58470 51.92026
# Shear Modulus (GPa) = 20.16170 26.45564 23.30867
#
# Velocity S-wave (km/s) = 3.24209 3.71382 3.48595
# Velocity P-wave (km/s) = 5.87202 7.21532 6.57805
#
# Compressibility (1/GPa) = 0.02547392
#
# Stress axis : x y z
#
# Youngs Moduli (GPa) = 39.03165 39.03165 72.92930
#
# Poissons Ratio (x) = 0.00949 0.71092
# Poissons Ratio (y) = 0.00949 0.71092
# Poissons Ratio (z) = 0.38048 0.38048
#
# Static dielectric constant tensor:
#      x y z
#    x 1.663080 0.000000 0.000000 
#    y 0.000000 1.663080 0.000000 
#    z 0.000000 0.000000 1.693230 
# 
# From -- ./inp_files/6594.got.cif
#   From: 2010.05.17/outbox.cif.g08.bks.cpg/sg125_4_cif.got.tgz:6594.got - 2010.05.20 11:54:10.
