data_PCOD9563978
_publ_section_title
;
Structure prediction by ZEFSAII (Michael W. Deem and Ramdas Pophale) SiO2 
 PCOD9563978
Probable space group: P 4/M B M
;
_chemical_formula_sum "Si O2"
_cell_formula_units_Z 96
_cell_length_a 27.293889
_cell_length_b 27.293889
_cell_length_c 9.089671
_cell_angle_alpha 90.000000
_cell_angle_beta 90.000000
_cell_angle_gamma 90.000000
_cell_volume 6771.408374
_symmetry_space_group_name_H-M "P 4/M B M"
_symmetry_group_IT_number 127
_symmetry_cell_setting 'tetragonal'
loop_
_space_group_symop_operation_xyz
x,y,z
-y,x,z
-x,-y,z
y,-x,z
1/2+x,1/2-y,-z
1/2-x,1/2+y,-z
1/2+y,1/2+x,-z
1/2-y,1/2-x,-z
-x,-y,-z
y,-x,-z
x,y,-z
-y,x,-z
1/2-x,1/2+y,z
1/2+x,1/2-y,z
1/2-y,1/2-x,z
1/2+y,1/2+x,z
loop_
_atom_site_type_symbol
_atom_site_label
_atom_site_fract_x
_atom_site_fract_y
_atom_site_fract_z
Si Si1 0.644543 0.778864 0.170071
Si Si2 0.376229 0.657081 0.675115
Si Si3 0.508175 0.581344 0.660483
Si Si4 0.425295 0.293811 0.675397
Si Si5 0.481863 0.668068 0.170713
Si Si6 0.305340 0.727997 0.830353
O O1 0.671111 0.828890 0.220598
O O2 0.602365 0.754432 0.265830
O O3 0.687471 0.737871 0.169520
O O4 0.629040 0.785001 0.000000
O O5 0.383322 0.655322 0.500000
O O6 0.341217 0.610034 0.713957
O O7 0.428766 0.661085 0.754207
O O8 0.346007 0.705227 0.725008
O O9 0.457925 0.551101 0.662013
O O10 0.510876 0.607520 0.500000
O O11 0.507886 0.615953 0.799073
O O12 0.428260 0.292613 0.500000
O O13 0.478952 0.297287 0.747754
O O14 0.476940 0.679715 0.000000
O O15 0.278911 0.778911 0.788402
O O16 0.322869 0.731734 0.000000
#
# Coordination Sequence:
#
# PCOD9563978 Si02
#       6
#    16  16  16  16  16  16
#     4   8  14  26  44  64  84 103 124 155 195 237
#     4  10  20  32  45  60  79 104 134 168 205 245
#     4   9  18  32  46  56  68  90 122 162 207 249
#     4  10  20  32  45  60  79 104 134 168 205 245
#     4  12  23  31  41  56  76 102 132 167 205 244
#     4   8  14  26  44  64  84 103 124 155 195 237
#
# _framework density 14.177257000000001
#
# number of rings (size 3 to 8) (size 9 to 14) (size 15 to 20)
#    0.000    2.500    0.000    5.000    0.000    7.333 
#    0.000    4.167    0.000    0.000    0.000    0.000 
#    0.000    0.000    0.000    0.000    0.000    0.833 
#
# Total GULP energy -534485.517752 kJ/mol
# GULP energy per Si atom -5567.557477 kJ/mol
# Density = 1.414499 g / cm^3
# Si number density = 14.177257 Si / 1000 Ang^3
#
#
#
# Elastic Constant Matrix: (Units=GPa)
#
#
# Indices 1 2 3 4 5 6 
#
# 1 33.3465 17.4718 22.0197 0.0000 0.0000 0.0000
# 2 17.4718 33.3465 22.0197 0.0000 0.0000 0.0000
# 3 22.0197 22.0197 57.1970 0.0000 0.0000 0.0000
# 4 0.0000 0.0000 0.0000 18.5289 0.0000 0.0000
# 5 0.0000 0.0000 0.0000 0.0000 18.5289 0.0000
# 6 0.0000 0.0000 0.0000 0.0000 0.0000 11.7350
#
#
#
# Elastic Compliance Matrix: (Units=1/GPa)
#
#
# Indices 1 2 3 4 5 6 
#
# 1 0.046262 -0.016732 -0.011368 0.000000 0.000000 0.000000
# 2 -0.016732 0.046262 -0.011368 0.000000 0.000000 0.000000
# 3 -0.011368 -0.011368 0.026237 0.000000 0.000000 0.000000
# 4 0.000000 0.000000 0.000000 0.053970 0.000000 0.000000
# 5 0.000000 0.000000 0.000000 0.000000 0.053970 0.000000
# 6 0.000000 0.000000 0.000000 0.000000 0.000000 0.085215
#
#
# Mechanical properties :
#
#
# Convention : Reuss Voigt Hill
#
# Bulk Modulus (GPa) = 25.11126 27.43469 26.27298
# Shear Modulus (GPa) = 12.37236 13.91713 13.14475
#
# Velocity S-wave (km/s) = 2.95734 3.13653 3.04825
# Velocity P-wave (km/s) = 5.42328 5.70178 5.56427
#
# Compressibility (1/GPa) = 0.03982277
#
# Stress axis : x y z
#
# Youngs Moduli (GPa) = 21.61614 21.61614 38.11466
#
# Poissons Ratio (x) = 0.36168 0.43330
# Poissons Ratio (y) = 0.36168 0.43330
# Poissons Ratio (z) = 0.24574 0.24574
#
# Static dielectric constant tensor:
#      x y z
#    x 1.484490 0.000000 0.000000 
#    y 0.000000 1.484490 0.000000 
#    z 0.000000 0.000000 1.484370 
# 
# From -- ./inp_files/2166.got.cif
#   From: 2010.05.17/outbox.cif.g08.bks.cpg/sg127_2_cif.got.tgz:2166.got - 2010.05.20 12:03:00.
