data_PCOD9563433
_publ_section_title
;
Structure prediction by ZEFSAII (Michael W. Deem and Ramdas Pophale) SiO2 
 PCOD9563433
Probable space group: P 4/N N C
;
_chemical_formula_sum "Si O2"
_cell_formula_units_Z 64
_cell_length_a 14.629458
_cell_length_b 14.629458
_cell_length_c 13.658300
_cell_angle_alpha 90.000000
_cell_angle_beta 90.000000
_cell_angle_gamma 90.000000
_cell_volume 2923.163589
_symmetry_space_group_name_H-M "P 4/N N C"
_symmetry_group_IT_number 126
_space_group.IT_coordinate_system_code '2'
_symmetry_cell_setting 'tetragonal'
loop_
_space_group_symop_operation_xyz
x,y,z
1/2-y,x,z
1/2-x,1/2-y,z
y,1/2-x,z
x,1/2-y,1/2-z
1/2-x,y,1/2-z
y,x,1/2-z
1/2-y,1/2-x,1/2-z
-x,-y,-z
1/2+y,-x,-z
1/2+x,1/2+y,-z
-y,1/2+x,-z
-x,1/2+y,1/2+z
1/2+x,-y,1/2+z
-y,-x,1/2+z
1/2+y,1/2+x,1/2+z
loop_
_atom_site_type_symbol
_atom_site_label
_atom_site_fract_x
_atom_site_fract_y
_atom_site_fract_z
Si Si1 0.984978 0.695614 0.344600
Si Si2 0.299154 0.844893 0.345137
Si Si3 0.486759 0.996516 0.138450
Si Si4 0.477947 0.843678 0.009818
O O1 0.949638 0.750000 0.250000
O O2 0.093879 0.677650 0.328730
O O3 0.969641 0.762469 0.436003
O O4 0.955985 0.591208 0.362103
O O5 0.250000 0.750000 0.360567
O O6 0.250000 0.888241 0.250000
O O7 0.295138 0.904904 0.441313
O O8 0.472764 0.027237 0.250000
O O9 0.477449 0.082165 0.065040
O O10 0.434130 0.909507 0.093961
#
# Coordination Sequence:
#
# PCOD9563433 Si02
#       4
#    16  16  16  16
#     4  11  20  34  57  85 120 153 203 257 305 361
#     4  10  21  33  52  86 128 161 190 235 307 383
#     4  10  21  39  59  83 125 167 211 250 318 385
#     4  10  23  37  57  84 123 168 199 255 308 374
#
# _framework density 21.894086999999999
#
# number of rings (size 3 to 8) (size 9 to 14) (size 15 to 20)
#    0.000    1.750    5.000    0.000    7.000    0.000 
#    4.500    0.000    0.000    0.750    0.000    0.000 
#    7.500    0.000    0.000    0.000    0.000    0.000 
#
# Total GULP energy -357174.067850 kJ/mol
# GULP energy per Si atom -5580.844810 kJ/mol
# Density = 2.184426 g / cm^3
# Si number density = 21.894087 Si / 1000 Ang^3
#
#
#
# Elastic Constant Matrix: (Units=GPa)
#
#
# Indices 1 2 3 4 5 6 
#
# 1 62.1554 -0.1408 26.8629 0.0000 0.0000 0.0000
# 2 -0.1408 62.1557 26.8627 0.0000 0.0000 0.0000
# 3 26.8629 26.8627 174.1163 0.0000 0.0000 0.0000
# 4 0.0000 0.0000 0.0000 28.5467 0.0000 0.0000
# 5 0.0000 0.0000 0.0000 0.0000 28.5468 0.0000
# 6 0.0000 0.0000 0.0000 0.0000 0.0000 14.0550
#
#
#
# Elastic Compliance Matrix: (Units=1/GPa)
#
#
# Indices 1 2 3 4 5 6 
#
# 1 0.017333 0.001280 -0.002872 0.000000 0.000000 0.000000
# 2 0.001280 0.017333 -0.002872 0.000000 0.000000 0.000000
# 3 -0.002872 -0.002872 0.006629 0.000000 0.000000 0.000000
# 4 0.000000 0.000000 0.000000 0.035030 0.000000 0.000000
# 5 0.000000 0.000000 0.000000 0.000000 0.035030 0.000000
# 6 0.000000 0.000000 0.000000 0.000000 0.000000 0.071149
#
#
# Mechanical properties :
#
#
# Convention : Reuss Voigt Hill
#
# Bulk Modulus (GPa) = 30.89391 45.06633 37.98012
# Shear Modulus (GPa) = 24.72562 30.55256 27.63909
#
# Velocity S-wave (km/s) = 3.36419 3.73965 3.55688
# Velocity P-wave (km/s) = 5.40663 6.26699 5.85264
#
# Compressibility (1/GPa) = 0.03236883
#
# Stress axis : x y z
#
# Youngs Moduli (GPa) = 57.69445 57.69478 150.84406
#
# Poissons Ratio (x) = -0.07387 0.43317
# Poissons Ratio (y) = -0.07387 0.43317
# Poissons Ratio (z) = 0.16568 0.16568
#
# Static dielectric constant tensor:
#      x y z
#    x 1.867590 0.000000 0.000000 
#    y 0.000000 1.867590 0.000000 
#    z 0.000000 0.000000 1.893150 
# 
# From -- ./inp_files/3451.got.cif
#   From: 2010.05.17/outbox.cif.g08.bks.cpg/sg126_2_cif.got.tgz:3451.got - 2010.05.20 11:58:20.
