data_PCOD9564597
_publ_section_title
;
Structure prediction by ZEFSAII (Michael W. Deem and Ramdas Pophale) SiO2 
 PCOD9564597
Probable space group: P 4/M N C
;
_chemical_formula_sum "Si O2"
_cell_formula_units_Z 128
_cell_length_a 18.151951
_cell_length_b 18.151951
_cell_length_c 22.208696
_cell_angle_alpha 90.000000
_cell_angle_beta 90.000000
_cell_angle_gamma 90.000000
_cell_volume 7317.617091
_symmetry_space_group_name_H-M "P 4/M N C"
_symmetry_group_IT_number 128
_symmetry_cell_setting 'tetragonal'
loop_
_space_group_symop_operation_xyz
x,y,z
-y,x,z
-x,-y,z
y,-x,z
1/2+x,1/2-y,1/2-z
1/2-x,1/2+y,1/2-z
1/2+y,1/2+x,1/2-z
1/2-y,1/2-x,1/2-z
-x,-y,-z
y,-x,-z
x,y,-z
-y,x,-z
1/2-x,1/2+y,1/2+z
1/2+x,1/2-y,1/2+z
1/2-y,1/2-x,1/2+z
1/2+y,1/2+x,1/2+z
loop_
_atom_site_type_symbol
_atom_site_label
_atom_site_fract_x
_atom_site_fract_y
_atom_site_fract_z
Si Si1 0.987451 0.788504 0.928634
Si Si2 0.650670 0.666511 0.573717
Si Si3 0.266000 0.291873 0.069223
Si Si4 0.858050 0.521351 0.762687
Si Si5 0.599715 0.932937 0.154093
Si Si6 0.288002 0.935036 0.624969
Si Si7 0.197743 0.592426 0.068213
Si Si8 0.941891 0.617121 0.070227
O O1 0.918133 0.836681 0.906165
O O2 0.961636 0.703782 0.923578
O O3 0.070604 0.803324 0.905723
O O4 0.992012 0.804094 0.000000
O O5 0.650959 0.669066 0.500000
O O6 0.723059 0.714807 0.590580
O O7 0.261611 0.366134 0.107342
O O8 0.348919 0.262746 0.067953
O O9 0.242054 0.308694 0.000000
O O10 0.907263 0.592738 0.750000
O O11 0.906447 0.468581 0.805826
O O12 0.847078 0.474869 0.701508
O O13 0.790181 0.544866 0.804384
O O14 0.622815 0.861666 0.116197
O O15 0.578874 0.990628 0.103139
O O16 0.368377 0.904992 0.604796
O O17 0.277981 0.011020 0.588509
O O18 0.166540 0.590289 0.000000
O O19 0.935150 0.599491 0.000000
#
# Coordination Sequence:
#
# PCOD9564597 Si02
#       8
#    16  16  16  16  16  16  16  16
#     4   9  17  27  41  66  97 137 182 218 265 320
#     4   9  16  27  42  62  97 141 179 219 264 315
#     4  10  19  35  53  76 115 146 176 233 292 337
#     4  10  20  34  49  69 100 148 181 217 265 317
#     4  10  19  31  50  72 109 143 176 216 277 325
#     4  11  21  34  55  74 104 145 190 227 276 342
#     4  10  21  33  52  84 112 146 185 224 284 353
#     4  11  19  28  47  75 104 134 177 225 268 338
#
# _framework density 17.492032999999999
#
# number of rings (size 3 to 8) (size 9 to 14) (size 15 to 20)
#    0.000    2.000    2.500    3.000    1.750    2.250 
#    0.000    3.125    5.500    0.375    0.000    1.750 
#    0.000    0.000    0.000    0.000    0.000    0.000 
#
# Total GULP energy -713157.090810 kJ/mol
# GULP energy per Si atom -5571.539772 kJ/mol
# Density = 1.745222 g / cm^3
# Si number density = 17.492033 Si / 1000 Ang^3
#
#
#
# Elastic Constant Matrix: (Units=GPa)
#
#
# Indices 1 2 3 4 5 6 
#
# 1 71.9199 40.9380 25.4716 0.0000 0.0000 0.0000
# 2 40.9380 71.9193 25.4723 0.0000 0.0000 0.0000
# 3 25.4716 25.4723 77.4125 0.0000 0.0000 0.0000
# 4 0.0000 0.0000 0.0000 16.8519 0.0000 0.0000
# 5 0.0000 0.0000 0.0000 0.0000 16.8519 0.0000
# 6 0.0000 0.0000 0.0000 0.0000 0.0000 11.2910
#
#
#
# Elastic Compliance Matrix: (Units=1/GPa)
#
#
# Indices 1 2 3 4 5 6 
#
# 1 0.021342 -0.010935 -0.003424 0.000000 0.000000 0.000000
# 2 -0.010935 0.021342 -0.003424 0.000000 0.000000 0.000000
# 3 -0.003424 -0.003424 0.015171 0.000000 0.000000 0.000000
# 4 0.000000 0.000000 0.000000 0.059341 0.000000 0.000000
# 5 0.000000 0.000000 0.000000 0.000000 0.059341 0.000000
# 6 0.000000 0.000000 0.000000 0.000000 0.000000 0.088566
#
#
# Mechanical properties :
#
#
# Convention : Reuss Voigt Hill
#
# Bulk Modulus (GPa) = 44.86843 45.00174 44.93509
# Shear Modulus (GPa) = 16.22859 17.62361 16.92610
#
# Velocity S-wave (km/s) = 3.04924 3.17759 3.11408
# Velocity P-wave (km/s) = 6.17281 6.26463 6.21889
#
# Compressibility (1/GPa) = 0.02228739
#
# Stress axis : x y z
#
# Youngs Moduli (GPa) = 46.85680 46.85601 65.91449
#
# Poissons Ratio (x) = 0.51239 0.22569
# Poissons Ratio (y) = 0.51240 0.22571
# Poissons Ratio (z) = 0.16043 0.16045
#
# Static dielectric constant tensor:
#      x y z
#    x 1.630770 0.000000 0.000000 
#    y 0.000000 1.630770 0.000000 
#    z 0.000000 0.000000 1.632150 
# 
# From -- ./inp_files/6620.got.cif
#   From: 2010.05.17/outbox.cif.g08.bks.cpg/sg128_4_cif.got.tgz:6620.got - 2010.05.20 12:07:25.
