data_PCOD9564672
_publ_section_title
;
Structure prediction by ZEFSAII (Michael W. Deem and Ramdas Pophale) SiO2 
 PCOD9564672
Probable space group: P 4/M N C
;
_chemical_formula_sum "Si O2"
_cell_formula_units_Z 88
_cell_length_a 17.408882
_cell_length_b 17.408882
_cell_length_c 15.314587
_cell_angle_alpha 90.000000
_cell_angle_beta 90.000000
_cell_angle_gamma 90.000000
_cell_volume 4641.379209
_symmetry_space_group_name_H-M "P 4/M N C"
_symmetry_group_IT_number 128
_symmetry_cell_setting 'tetragonal'
loop_
_space_group_symop_operation_xyz
x,y,z
-y,x,z
-x,-y,z
y,-x,z
1/2+x,1/2-y,1/2-z
1/2-x,1/2+y,1/2-z
1/2+y,1/2+x,1/2-z
1/2-y,1/2-x,1/2-z
-x,-y,-z
y,-x,-z
x,y,-z
-y,x,-z
1/2-x,1/2+y,1/2+z
1/2+x,1/2-y,1/2+z
1/2-y,1/2-x,1/2+z
1/2+y,1/2+x,1/2+z
loop_
_atom_site_type_symbol
_atom_site_label
_atom_site_fract_x
_atom_site_fract_y
_atom_site_fract_z
Si Si1 0.060055 0.217478 0.397075
Si Si2 0.649834 0.875950 0.600358
Si Si3 0.870030 0.004397 0.000000
Si Si4 0.108935 0.810874 0.676447
Si Si5 0.458772 0.258700 0.651120
Si Si6 0.526310 0.142993 0.790240
O O1 0.070804 0.213932 0.500000
O O2 0.118892 0.160922 0.350400
O O3 0.069470 0.304477 0.361997
O O4 0.973824 0.190940 0.371763
O O5 0.660206 0.901684 0.500000
O O6 0.731164 0.853971 0.643431
O O7 0.594855 0.803001 0.602913
O O8 0.620748 0.946425 0.661284
O O9 0.927862 0.076452 0.000000
O O10 0.814880 0.000964 0.915435
O O11 0.091629 0.806517 0.779144
O O12 0.510386 0.204398 0.713101
O O13 0.573507 0.073507 0.750000
#
# Coordination Sequence:
#
# PCOD9564672 Si02
#       6
#    16  16   8  16  16  16
#     4  10  20  38  57  86 119 158 207 258 318 383
#     4  10  19  39  62  87 117 160 204 252 311 380
#     4  11  26  46  68  89 130 168 218 270 311 367
#     4  10  21  35  59  84 121 159 201 263 321 380
#     4  10  22  41  62  90 117 165 213 257 313 384
#     4  10  22  39  60  90 128 162 202 256 322 388
#
# _framework density 18.959880999999999
#
# number of rings (size 3 to 8) (size 9 to 14) (size 15 to 20)
#    0.000    2.273    0.909    5.455    5.091    3.273 
#    3.273    1.818    0.000    0.000    0.000    0.000 
#    0.000    0.000    0.000    0.000    0.000    0.000 
#
# Total GULP energy -491005.144694 kJ/mol
# GULP energy per Si atom -5579.603917 kJ/mol
# Density = 1.891673 g / cm^3
# Si number density = 18.959881 Si / 1000 Ang^3
#
#
#
# Elastic Constant Matrix: (Units=GPa)
#
#
# Indices 1 2 3 4 5 6 
#
# 1 32.1699 24.6730 8.3110 0.0000 0.0000 0.0000
# 2 24.6730 32.1699 8.3110 0.0000 0.0000 0.0000
# 3 8.3110 8.3110 122.0724 0.0000 0.0000 0.0000
# 4 0.0000 0.0000 0.0000 21.1740 0.0000 0.0000
# 5 0.0000 0.0000 0.0000 0.0000 21.1740 0.0000
# 6 0.0000 0.0000 0.0000 0.0000 0.0000 42.0616
#
#
#
# Elastic Compliance Matrix: (Units=1/GPa)
#
#
# Indices 1 2 3 4 5 6 
#
# 1 0.075669 -0.057719 -0.001222 0.000000 0.000000 0.000000
# 2 -0.057719 0.075669 -0.001222 0.000000 0.000000 0.000000
# 3 -0.001222 -0.001222 0.008358 0.000000 0.000000 0.000000
# 4 0.000000 0.000000 0.000000 0.047228 0.000000 0.000000
# 5 0.000000 0.000000 0.000000 0.000000 0.047228 0.000000
# 6 0.000000 0.000000 0.000000 0.000000 0.000000 0.023775
#
#
# Mechanical properties :
#
#
# Convention : Reuss Voigt Hill
#
# Bulk Modulus (GPa) = 25.40040 29.88911 27.64476
# Shear Modulus (GPa) = 12.15431 26.55640 19.35535
#
# Velocity S-wave (km/s) = 2.53465 3.74660 3.19855
# Velocity P-wave (km/s) = 4.68956 5.87492 5.31538
#
# Compressibility (1/GPa) = 0.03936945
#
# Stress axis : x y z
#
# Youngs Moduli (GPa) = 13.21543 13.21543 119.64213
#
# Poissons Ratio (x) = 0.76279 0.14621
# Poissons Ratio (y) = 0.76279 0.14621
# Poissons Ratio (z) = 0.01615 0.01615
#
# Static dielectric constant tensor:
#      x y z
#    x 1.657480 0.000000 0.000000 
#    y 0.000000 1.657480 0.000000 
#    z 0.000000 0.000000 1.685550 
# 
# From -- ./inp_files/3816.got.cif
#   From: 2010.05.17/outbox.cif.g08.bks.cpg/sg128_2_cif.got.tgz:3816.got - 2010.05.20 12:07:25.
