data_PCOD9564340
_publ_section_title
;
Structure prediction by ZEFSAII (Michael W. Deem and Ramdas Pophale) SiO2 
 PCOD9564340
Probable space group: P 4/M B M
;
_chemical_formula_sum "Si O2"
_cell_formula_units_Z 56
_cell_length_a 17.429683
_cell_length_b 17.429683
_cell_length_c 10.197319
_cell_angle_alpha 90.000000
_cell_angle_beta 90.000000
_cell_angle_gamma 90.000000
_cell_volume 3097.882793
_symmetry_space_group_name_H-M "P 4/M B M"
_symmetry_group_IT_number 127
_symmetry_cell_setting 'tetragonal'
loop_
_space_group_symop_operation_xyz
x,y,z
-y,x,z
-x,-y,z
y,-x,z
1/2+x,1/2-y,-z
1/2-x,1/2+y,-z
1/2+y,1/2+x,-z
1/2-y,1/2-x,-z
-x,-y,-z
y,-x,-z
x,y,-z
-y,x,-z
1/2-x,1/2+y,z
1/2+x,1/2-y,z
1/2-y,1/2-x,z
1/2+y,1/2+x,z
loop_
_atom_site_type_symbol
_atom_site_label
_atom_site_fract_x
_atom_site_fract_y
_atom_site_fract_z
Si Si1 0.950445 0.117971 0.000000
Si Si2 0.215773 0.902485 0.354822
Si Si3 0.694033 0.194033 0.848807
Si Si4 0.174025 0.674025 0.846003
Si Si5 0.575730 0.701825 0.271409
O O1 0.931045 0.164302 0.128471
O O2 0.039490 0.096641 0.000000
O O3 0.249057 0.889680 0.500000
O O4 0.269920 0.874759 0.236002
O O5 0.139409 0.849769 0.344139
O O6 0.198843 0.992515 0.336924
O O7 0.759903 0.259903 0.851683
O O8 0.675413 0.175413 0.000000
O O9 0.106520 0.713085 0.761533
O O10 0.155820 0.655820 0.000000
#
# Coordination Sequence:
#
# PCOD9564340 Si02
#       5
#     8  16   8   8  16
#     4  11  20  31  50  84 118 152 187 240 284 331
#     4  11  23  38  55  82 118 152 183 226 281 341
#     4   9  21  37  59  82 105 146 191 233 271 331
#     4   9  18  31  53  82 109 138 187 239 279 315
#     4  11  21  34  56  82 114 149 192 230 282 338
#
# _framework density 18.076862999999999
#
# number of rings (size 3 to 8) (size 9 to 14) (size 15 to 20)
#    0.000    1.571    4.286    1.286    4.000    0.571 
#    0.000    3.571    0.000    0.857    0.000    4.000 
#    0.000    0.000    0.000    0.000    0.000    0.000 
#
# Total GULP energy -312419.117772 kJ/mol
# GULP energy per Si atom -5578.912817 kJ/mol
# Density = 1.803572 g / cm^3
# Si number density = 18.076863 Si / 1000 Ang^3
#
#
#
# Elastic Constant Matrix: (Units=GPa)
#
#
# Indices 1 2 3 4 5 6 
#
# 1 53.2897 42.0488 28.0350 0.0000 0.0000 0.0000
# 2 42.0488 53.2897 28.0350 0.0000 0.0000 0.0000
# 3 28.0350 28.0350 138.9245 0.0000 0.0000 0.0000
# 4 0.0000 0.0000 0.0000 13.9011 0.0000 0.0000
# 5 0.0000 0.0000 0.0000 0.0000 13.9011 0.0000
# 6 0.0000 0.0000 0.0000 0.0000 0.0000 27.1717
#
#
#
# Elastic Compliance Matrix: (Units=1/GPa)
#
#
# Indices 1 2 3 4 5 6 
#
# 1 0.050431 -0.038530 -0.002402 0.000000 0.000000 0.000000
# 2 -0.038530 0.050431 -0.002402 0.000000 0.000000 0.000000
# 3 -0.002402 -0.002402 0.008167 0.000000 0.000000 0.000000
# 4 0.000000 0.000000 0.000000 0.071937 0.000000 0.000000
# 5 0.000000 0.000000 0.000000 0.000000 0.071937 0.000000
# 6 0.000000 0.000000 0.000000 0.000000 0.000000 0.036803
#
#
# Mechanical properties :
#
#
# Convention : Reuss Voigt Hill
#
# Bulk Modulus (GPa) = 44.71570 49.08235 46.89903
# Shear Modulus (GPa) = 13.02671 20.82046 16.92359
#
# Velocity S-wave (km/s) = 2.68737 3.39746 3.06306
# Velocity P-wave (km/s) = 5.86680 6.52697 6.20567
#
# Compressibility (1/GPa) = 0.02236351
#
# Stress axis : x y z
#
# Youngs Moduli (GPa) = 19.82905 19.82905 122.43669
#
# Poissons Ratio (x) = 0.76401 0.29406
# Poissons Ratio (y) = 0.76401 0.29406
# Poissons Ratio (z) = 0.04762 0.04762
#
# Static dielectric constant tensor:
#      x y z
#    x 1.641200 0.000000 0.000000 
#    y 0.000000 1.641200 0.000000 
#    z 0.000000 0.000000 1.621170 
# 
# From -- ./inp_files/1117.got.cif
#   From: 2010.05.17/outbox.cif.g08.bks.cpg/sg127_1_cif.got.tgz:1117.got - 2010.05.20 12:03:00.
