data_PCOD9564896
_publ_section_title
;
Structure prediction by ZEFSAII (Michael W. Deem and Ramdas Pophale) SiO2 
 PCOD9564896
Probable space group: P 4/M N C
;
_chemical_formula_sum "Si O2"
_cell_formula_units_Z 40
_cell_length_a 10.240293
_cell_length_b 10.240293
_cell_length_c 18.437010
_cell_angle_alpha 90.000000
_cell_angle_beta 90.000000
_cell_angle_gamma 90.000000
_cell_volume 1933.371255
_symmetry_space_group_name_H-M "P 4/M N C"
_symmetry_group_IT_number 128
_symmetry_cell_setting 'tetragonal'
loop_
_space_group_symop_operation_xyz
x,y,z
-y,x,z
-x,-y,z
y,-x,z
1/2+x,1/2-y,1/2-z
1/2-x,1/2+y,1/2-z
1/2+y,1/2+x,1/2-z
1/2-y,1/2-x,1/2-z
-x,-y,-z
y,-x,-z
x,y,-z
-y,x,-z
1/2-x,1/2+y,1/2+z
1/2+x,1/2-y,1/2+z
1/2-y,1/2-x,1/2+z
1/2+y,1/2+x,1/2+z
loop_
_atom_site_type_symbol
_atom_site_label
_atom_site_fract_x
_atom_site_fract_y
_atom_site_fract_z
Si Si1 0.397143 0.695896 0.500000
Si Si2 0.512198 0.282854 0.243184
Si Si3 0.606191 0.096940 0.126348
O O1 0.330458 0.553861 0.500000
O O2 0.363240 0.782506 0.429977
O O3 0.633590 0.381867 0.250957
O O4 0.530799 0.214711 0.165640
O O5 0.522402 0.177652 0.307123
O O6 0.500000 0.000000 0.092324
#
# Coordination Sequence:
#
# PCOD9564896 Si02
#       3
#     8  16  16
#     4  11  25  44  66  89 122 168 210 259 313 372
#     4  10  22  39  63  93 125 164 204 255 309 366
#     4  11  24  38  65  93 125 161 207 261 309 367
#
# _framework density 20.689250000000001
#
# number of rings (size 3 to 8) (size 9 to 14) (size 15 to 20)
#    0.000    1.400    0.000    5.400   16.800    3.200 
#    0.000    0.000    0.000    2.400    0.000    0.000 
#    0.000    0.000    0.000    0.000    0.000    0.000 
#
# Total GULP energy -223688.912196 kJ/mol
# GULP energy per Si atom -5592.222805 kJ/mol
# Density = 2.064216 g / cm^3
# Si number density = 20.689250 Si / 1000 Ang^3
#
#
#
# Elastic Constant Matrix: (Units=GPa)
#
#
# Indices 1 2 3 4 5 6 
#
# 1 76.8129 -0.4932 3.2863 0.0000 0.0000 0.0000
# 2 -0.4932 76.8129 3.2863 0.0000 0.0000 0.0000
# 3 3.2863 3.2863 83.4053 0.0000 0.0000 0.0000
# 4 0.0000 0.0000 0.0000 -18.8950 0.0000 0.0000
# 5 0.0000 0.0000 0.0000 0.0000 -18.8950 0.0000
# 6 0.0000 0.0000 0.0000 0.0000 0.0000 25.7841
#
#
#
# Elastic Compliance Matrix: (Units=1/GPa)
#
#
# Indices 1 2 3 4 5 6 
#
# 1 0.013041 0.000106 -0.000518 0.000000 0.000000 0.000000
# 2 0.000106 0.013041 -0.000518 0.000000 0.000000 0.000000
# 3 -0.000518 -0.000518 0.012030 0.000000 0.000000 0.000000
# 4 0.000000 0.000000 0.000000 -0.052924 0.000000 0.000000
# 5 0.000000 0.000000 0.000000 0.000000 -0.052924 0.000000
# 6 0.000000 0.000000 0.000000 0.000000 0.000000 0.038784
#
#
# Mechanical properties :
#
#
# Convention : Reuss Voigt Hill
#
# Bulk Modulus (GPa) = 27.58386 27.68780 27.63583
# Shear Modulus (GPa) = -333.19008 12.99560 -160.09724
#
# Velocity S-wave (km/s) = -12.70412 2.50898 -8.80624
# Velocity P-wave (km/s) = 14.20674 4.66959 9.48753
#
# Compressibility (1/GPa) = 0.03625309
#
# Stress axis : x y z
#
# Youngs Moduli (GPa) = 76.67840 76.67840 83.12230
#
# Poissons Ratio (x) = -0.00812 0.04306
# Poissons Ratio (y) = -0.00812 0.04306
# Poissons Ratio (z) = 0.03972 0.03972
#
# Static dielectric constant tensor:
#      x y z
#    x 1.724620 0.000000 0.000000 
#    y 0.000000 1.724620 0.000000 
#    z 0.000000 0.000000 1.686850 
# 
# From -- ./inp_files/3251.got.cif
#   From: 2010.05.17/outbox.cif.g08.bks.cpg/sg128_2_cif.got.tgz:3251.got - 2010.05.20 12:07:25.
