data_PCOD9564166
_publ_section_title
;
Structure prediction by ZEFSAII (Michael W. Deem and Ramdas Pophale) SiO2 
 PCOD9564166
Probable space group: P 4/M B M
;
_chemical_formula_sum "Si O2"
_cell_formula_units_Z 96
_cell_length_a 24.857572
_cell_length_b 24.857572
_cell_length_c 8.814941
_cell_angle_alpha 90.000000
_cell_angle_beta 90.000000
_cell_angle_gamma 90.000000
_cell_volume 5446.742222
_symmetry_space_group_name_H-M "P 4/M B M"
_symmetry_group_IT_number 127
_symmetry_cell_setting 'tetragonal'
loop_
_space_group_symop_operation_xyz
x,y,z
-y,x,z
-x,-y,z
y,-x,z
1/2+x,1/2-y,-z
1/2-x,1/2+y,-z
1/2+y,1/2+x,-z
1/2-y,1/2-x,-z
-x,-y,-z
y,-x,-z
x,y,-z
-y,x,-z
1/2-x,1/2+y,z
1/2+x,1/2-y,z
1/2-y,1/2-x,z
1/2+y,1/2+x,z
loop_
_atom_site_type_symbol
_atom_site_label
_atom_site_fract_x
_atom_site_fract_y
_atom_site_fract_z
Si Si1 0.396198 0.191731 0.824155
Si Si2 0.660017 0.000433 0.676212
Si Si3 0.194507 0.856112 0.179419
Si Si4 0.387759 0.887759 0.684883
Si Si5 0.201360 0.298641 0.317058
Si Si6 0.029172 0.213343 0.323875
Si Si7 0.805890 0.910152 0.319853
O O1 0.342321 0.157680 0.806658
O O2 0.447138 0.155843 0.775340
O O3 0.397114 0.243929 0.719273
O O4 0.401683 0.208175 0.000000
O O5 0.646027 0.989264 0.500000
O O6 0.628066 0.052413 0.732410
O O7 0.722782 0.017588 0.678759
O O8 0.241050 0.819359 0.256485
O O9 0.202949 0.918084 0.226717
O O10 0.135397 0.839519 0.236211
O O11 0.198762 0.849268 0.000000
O O12 0.387046 0.887046 0.500000
O O13 0.343388 0.843388 0.730523
O O14 0.203019 0.296982 0.500000
O O15 0.039921 0.198707 0.500000
O O16 0.972841 0.186053 0.274556
O O17 0.814335 0.906879 0.500000
#
# Coordination Sequence:
#
# PCOD9564166 Si02
#       7
#    16  16  16   8   8  16  16
#     4  10  21  36  52  73 106 143 180 228 281 331
#     4   9  17  32  54  77 100 136 186 229 270 323
#     4  12  24  36  55  87 122 147 177 226 282 332
#     4   9  16  31  54  78 103 136 180 231 270 312
#     4  11  21  37  57  78 114 153 186 224 269 326
#     4   9  18  36  59  80 105 144 189 224 264 327
#     4  10  22  39  60  82 107 147 190 225 266 323
#
# _framework density 17.625215000000001
#
# number of rings (size 3 to 8) (size 9 to 14) (size 15 to 20)
#    0.000    2.000    1.667    3.750    1.167    4.667 
#    0.000    0.833    0.000    3.000    0.000    3.500 
#    0.000    0.000    0.000    0.000    0.000    0.000 
#
# Total GULP energy -535573.225289 kJ/mol
# GULP energy per Si atom -5578.887763 kJ/mol
# Density = 1.758510 g / cm^3
# Si number density = 17.625215 Si / 1000 Ang^3
#
#
#
# Elastic Constant Matrix: (Units=GPa)
#
#
# Indices 1 2 3 4 5 6 
#
# 1 57.4124 29.2931 31.4924 0.0000 0.0000 0.0000
# 2 29.2931 57.4120 31.4920 0.0000 0.0000 0.0000
# 3 31.4924 31.4920 69.3709 0.0000 0.0000 0.0000
# 4 0.0000 0.0000 0.0000 -302.2761 0.0000 0.0000
# 5 0.0000 0.0000 0.0000 0.0000 -302.2828 0.0000
# 6 0.0000 0.0000 0.0000 0.0000 0.0000 21.4893
#
#
#
# Elastic Compliance Matrix: (Units=1/GPa)
#
#
# Indices 1 2 3 4 5 6 
#
# 1 0.026386 -0.009177 -0.007812 0.000000 0.000000 0.000000
# 2 -0.009177 0.026386 -0.007812 0.000000 0.000000 0.000000
# 3 -0.007812 -0.007812 0.021508 0.000000 0.000000 0.000000
# 4 0.000000 0.000000 0.000000 -0.003308 0.000000 0.000000
# 5 0.000000 0.000000 0.000000 0.000000 -0.003308 0.000000
# 6 0.000000 0.000000 0.000000 0.000000 0.000000 0.046535
#
#
# Mechanical properties :
#
#
# Convention : Reuss Voigt Hill
#
# Bulk Modulus (GPa) = 40.52451 40.97227 40.74839
# Shear Modulus (GPa) = 29.06541 -110.48608 -40.71034
#
# Velocity S-wave (km/s) = 4.06529 -7.92606 -4.81123
# Velocity P-wave (km/s) = 6.71400 7.77602 2.77387
#
# Compressibility (1/GPa) = 0.02467643
#
# Stress axis : x y z
#
# Youngs Moduli (GPa) = 37.89958 37.89948 46.49427
#
# Poissons Ratio (x) = 0.34782 0.36321
# Poissons Ratio (y) = 0.34782 0.36321
# Poissons Ratio (z) = 0.29607 0.29606
#
# Static dielectric constant tensor:
#      x y z
#    x 1.603660 0.000000 0.000000 
#    y 0.000000 1.603660 0.000000 
#    z 0.000000 0.000000 1.600600 
# 
# From -- ./inp_files/2094.got.cif
#   From: 2010.05.17/outbox.cif.g08.bks.cpg/sg127_2_cif.got.tgz:2094.got - 2010.05.20 12:03:00.
