data_PCOD9564509
_publ_section_title
;
Structure prediction by ZEFSAII (Michael W. Deem and Ramdas Pophale) SiO2 
 PCOD9564509
Probable space group: P 4/M B M
;
_chemical_formula_sum "Si O2"
_cell_formula_units_Z 112
_cell_length_a 15.000000
_cell_length_b 15.000000
_cell_length_c 27.000000
_cell_angle_alpha 90.000000
_cell_angle_beta 90.000000
_cell_angle_gamma 90.000000
_cell_volume 6075.000000
_symmetry_space_group_name_H-M "P 4/M B M"
_symmetry_group_IT_number 127
_symmetry_cell_setting 'tetragonal'
loop_
_space_group_symop_operation_xyz
x,y,z
-y,x,z
-x,-y,z
y,-x,z
1/2+x,1/2-y,-z
1/2-x,1/2+y,-z
1/2+y,1/2+x,-z
1/2-y,1/2-x,-z
-x,-y,-z
y,-x,-z
x,y,-z
-y,x,-z
1/2-x,1/2+y,z
1/2+x,1/2-y,z
1/2-y,1/2-x,z
1/2+y,1/2+x,z
loop_
_atom_site_type_symbol
_atom_site_label
_atom_site_fract_x
_atom_site_fract_y
_atom_site_fract_z
Si Si1 0.624471 0.727881 0.789058
Si Si2 0.389520 0.260829 0.094026
Si Si3 0.263517 0.905535 0.638414
Si Si4 0.648576 0.514929 0.557261
Si Si5 0.355983 0.994864 0.732456
Si Si6 0.390044 0.400561 0.704243
Si Si7 0.744005 0.097013 0.059059
O O1 0.711525 0.788476 0.779364
O O2 0.613227 0.719691 0.847357
O O3 0.540374 0.782923 0.767314
O O4 0.632212 0.636468 0.758597
O O5 0.329378 0.170623 0.084756
O O6 0.332550 0.342770 0.070252
O O7 0.494130 0.250165 0.078669
O O8 0.331578 0.831578 0.619423
O O9 0.227037 0.968101 0.595347
O O10 0.178777 0.859273 0.665518
O O11 0.311999 0.960082 0.682110
O O12 0.575920 0.593664 0.565067
O O13 0.676787 0.517485 0.500000
O O14 0.428459 0.071542 0.721933
O O15 0.411347 0.911347 0.754670
O O16 0.493737 0.380536 0.696725
O O17 0.658820 0.158820 0.076762
O O18 0.735722 0.089773 0.000000
#
# Coordination Sequence:
#
# PCOD9564509 Si02
#       7
#    16  16  16  16  16  16  16
#     4  10  21  38  57  82 113 148 189 236 286 334
#     4  10  23  40  61  91 124 157 202 256 306 363
#     4  11  21  34  55  82 110 144 187 235 282 330
#     4   9  19  37  58  78 105 142 183 229 283 340
#     4   9  19  36  56  78 109 150 192 231 278 341
#     4  11  22  35  51  76 112 150 186 225 272 330
#     4  10  22  41  65  90 120 160 201 250 307 362
#
# _framework density 18.436214
#
# number of rings (size 3 to 8) (size 9 to 14) (size 15 to 20)
#    0.000    2.000    1.429    2.143    2.000    3.429 
#    0.000    2.857    0.000    1.286    0.000    2.000 
#    0.000    0.000    0.000    0.000    0.000    0.000 
#
# Total GULP energy -624561.765468 kJ/mol
# GULP energy per Si atom -5576.444335 kJ/mol
# Density = 1.839425 g / cm^3
# Si number density = 18.436214 Si / 1000 Ang^3
#
#
#
# Elastic Constant Matrix: (Units=GPa)
#
#
# Indices 1 2 3 4 5 6 
#
# 1 74.1499 7.0701 8.1659 0.0000 0.0000 0.0000
# 2 7.0701 74.1499 8.1659 0.0000 0.0000 0.0000
# 3 8.1659 8.1659 55.3741 0.0000 0.0000 0.0000
# 4 0.0000 0.0000 0.0000 24.5009 0.0000 0.0000
# 5 0.0000 0.0000 0.0000 0.0000 24.5009 0.0000
# 6 0.0000 0.0000 0.0000 0.0000 0.0000 17.9152
#
#
#
# Elastic Compliance Matrix: (Units=1/GPa)
#
#
# Indices 1 2 3 4 5 6 
#
# 1 0.013798 -0.001110 -0.001871 0.000000 0.000000 0.000000
# 2 -0.001110 0.013798 -0.001871 0.000000 0.000000 0.000000
# 3 -0.001871 -0.001871 0.018611 0.000000 0.000000 0.000000
# 4 0.000000 0.000000 0.000000 0.040815 0.000000 0.000000
# 5 0.000000 0.000000 0.000000 0.000000 0.040815 0.000000
# 6 0.000000 0.000000 0.000000 0.000000 0.000000 0.055819
#
#
# Mechanical properties :
#
#
# Convention : Reuss Voigt Hill
#
# Bulk Modulus (GPa) = 27.39481 27.83085 27.61283
# Shear Modulus (GPa) = 24.32777 25.40156 24.86467
#
# Velocity S-wave (km/s) = 3.63652 3.71591 3.67643
# Velocity P-wave (km/s) = 5.70297 5.79130 5.74731
#
# Compressibility (1/GPa) = 0.03650327
#
# Stress axis : x y z
#
# Youngs Moduli (GPa) = 72.47404 72.47404 53.73211
#
# Poissons Ratio (x) = 0.08042 0.10054
# Poissons Ratio (y) = 0.08042 0.10054
# Poissons Ratio (z) = 0.13561 0.13561
#
# Static dielectric constant tensor:
#      x y z
#    x 1.657110 0.000000 0.000000 
#    y 0.000000 1.657110 0.000000 
#    z 0.000000 0.000000 1.628880 
# 
# From -- ./inp_files/6403.got.cif
#   From: 2010.05.17/outbox.ucp.g08.bks.cvg/sg127_4_cif.got.tgz:6403.got - 2010.06.11 11:37:05.
