data_PCOD9564265
_publ_section_title
;
Structure prediction by ZEFSAII (Michael W. Deem and Ramdas Pophale) SiO2 
 PCOD9564265
Probable space group: P 4/M B M
;
_chemical_formula_sum "Si O2"
_cell_formula_units_Z 84
_cell_length_a 15.272672
_cell_length_b 15.272672
_cell_length_c 20.207746
_cell_angle_alpha 90.000000
_cell_angle_beta 90.000000
_cell_angle_gamma 90.000000
_cell_volume 4713.547892
_symmetry_space_group_name_H-M "P 4/M B M"
_symmetry_group_IT_number 127
_symmetry_cell_setting 'tetragonal'
loop_
_space_group_symop_operation_xyz
x,y,z
-y,x,z
-x,-y,z
y,-x,z
1/2+x,1/2-y,-z
1/2-x,1/2+y,-z
1/2+y,1/2+x,-z
1/2-y,1/2-x,-z
-x,-y,-z
y,-x,-z
x,y,-z
-y,x,-z
1/2-x,1/2+y,z
1/2+x,1/2-y,z
1/2-y,1/2-x,z
1/2+y,1/2+x,z
loop_
_atom_site_type_symbol
_atom_site_label
_atom_site_fract_x
_atom_site_fract_y
_atom_site_fract_z
Si Si1 0.666887 0.979431 0.123241
Si Si2 0.424052 0.624689 0.000000
Si Si3 0.256594 0.899105 0.237016
Si Si4 0.168136 0.813036 0.878808
Si Si5 0.971305 0.854049 0.354289
Si Si6 0.971517 0.854747 0.500000
Si Si7 0.907136 0.592865 0.000000
O O1 0.584236 0.915765 0.136866
O O2 0.749847 0.914832 0.113613
O O3 0.690744 0.040688 0.185045
O O4 0.642522 0.034861 0.058460
O O5 0.384964 0.526948 0.000000
O O6 0.387027 0.668152 0.065742
O O7 0.321433 0.821433 0.259335
O O8 0.178812 0.855547 0.193143
O O9 0.214789 0.952322 0.296904
O O10 0.253237 0.753237 0.889612
O O11 0.963111 0.812049 0.427872
O O12 0.066087 0.901049 0.349023
O O13 0.065943 0.901888 0.500000
#
# Coordination Sequence:
#
# PCOD9564265 Si02
#       7
#    16   8  16  16  16   8   4
#     4  11  22  38  58  77 100 135 184 230 268 323
#     4  11  22  35  51  69  93 125 162 204 259 331
#     4  11  22  35  51  79 110 140 173 218 277 325
#     4  10  22  38  52  71  99 130 168 220 273 319
#     4   9  17  32  56  82 110 143 179 216 259 318
#     4   7  12  26  51  82 108 137 179 219 250 297
#     4  12  23  38  58  74  90 130 190 235 264 309
#
# _framework density 17.820969999999999
#
# number of rings (size 3 to 8) (size 9 to 14) (size 15 to 20)
#    0.000    1.905    0.952    5.143    0.000    2.286 
#    0.000    2.381    0.000    0.000    0.000    2.000 
#    0.000    1.524    0.000    0.000    0.000    0.000 
#
# Total GULP energy -467835.959969 kJ/mol
# GULP energy per Si atom -5569.475714 kJ/mol
# Density = 1.778041 g / cm^3
# Si number density = 17.820970 Si / 1000 Ang^3
#
#
#
# Elastic Constant Matrix: (Units=GPa)
#
#
# Indices 1 2 3 4 5 6 
#
# 1 49.5801 26.8516 44.5971 0.0000 0.0000 0.0000
# 2 26.8516 49.5801 44.5971 0.0000 0.0000 0.0000
# 3 44.5971 44.5971 151.2429 0.0000 0.0000 0.0000
# 4 0.0000 0.0000 0.0000 9.3923 0.0000 0.0000
# 5 0.0000 0.0000 0.0000 0.0000 9.3920 0.0000
# 6 0.0000 0.0000 0.0000 0.0000 0.0000 24.8690
#
#
#
# Elastic Compliance Matrix: (Units=1/GPa)
#
#
# Indices 1 2 3 4 5 6 
#
# 1 0.031973 -0.012025 -0.005882 0.000000 0.000000 0.000000
# 2 -0.012025 0.031973 -0.005882 0.000000 0.000000 0.000000
# 3 -0.005882 -0.005882 0.010081 0.000000 0.000000 0.000000
# 4 0.000000 0.000000 0.000000 0.106470 0.000000 0.000000
# 5 0.000000 0.000000 0.000000 0.000000 0.106474 0.000000
# 6 0.000000 0.000000 0.000000 0.000000 0.000000 0.040211
#
#
# Mechanical properties :
#
#
# Convention : Reuss Voigt Hill
#
# Bulk Modulus (GPa) = 37.80970 53.61054 45.71012
# Shear Modulus (GPa) = 13.03527 17.68782 15.36154
#
# Velocity S-wave (km/s) = 2.70748 3.15386 2.93916
# Velocity P-wave (km/s) = 5.57103 6.58867 6.10111
#
# Compressibility (1/GPa) = 0.02644824
#
# Stress axis : x y z
#
# Youngs Moduli (GPa) = 31.27676 31.27671 99.19891
#
# Poissons Ratio (x) = 0.37610 0.58349
# Poissons Ratio (y) = 0.37610 0.58349
# Poissons Ratio (z) = 0.18397 0.18397
#
# Static dielectric constant tensor:
#      x y z
#    x 1.623780 0.000000 0.000000 
#    y 0.000000 1.623780 0.000000 
#    z 0.000000 0.000000 1.612360 
# 
# From -- ./inp_files/5745.got.cif
#   From: 2010.05.17/outbox.cif.g08.bks.cpg/sg127_3_cif.got.tgz:5745.got - 2010.05.20 12:03:00.
