data_PCOD9564646
_publ_section_title
;
Structure prediction by ZEFSAII (Michael W. Deem and Ramdas Pophale) SiO2 
 PCOD9564646
Probable space group: P 4/M N C
;
_chemical_formula_sum "Si O2"
_cell_formula_units_Z 112
_cell_length_a 13.765181
_cell_length_b 13.765181
_cell_length_c 29.428807
_cell_angle_alpha 90.000000
_cell_angle_beta 90.000000
_cell_angle_gamma 90.000000
_cell_volume 5576.176470
_symmetry_space_group_name_H-M "P 4/M N C"
_symmetry_group_IT_number 128
_symmetry_cell_setting 'tetragonal'
loop_
_space_group_symop_operation_xyz
x,y,z
-y,x,z
-x,-y,z
y,-x,z
1/2+x,1/2-y,1/2-z
1/2-x,1/2+y,1/2-z
1/2+y,1/2+x,1/2-z
1/2-y,1/2-x,1/2-z
-x,-y,-z
y,-x,-z
x,y,-z
-y,x,-z
1/2-x,1/2+y,1/2+z
1/2+x,1/2-y,1/2+z
1/2-y,1/2-x,1/2+z
1/2+y,1/2+x,1/2+z
loop_
_atom_site_type_symbol
_atom_site_label
_atom_site_fract_x
_atom_site_fract_y
_atom_site_fract_z
Si Si1 0.139416 0.078179 0.567048
Si Si2 0.269845 0.008371 0.643162
Si Si3 0.757130 0.296251 0.448704
Si Si4 0.342838 0.532394 0.226564
Si Si5 0.734643 0.334042 0.705185
Si Si6 0.850341 0.425465 0.378273
Si Si7 0.196019 0.351157 0.633147
O O1 0.222618 0.150079 0.549422
O O2 0.035930 0.126167 0.554710
O O3 0.177655 0.059048 0.618654
O O4 0.276245 0.893504 0.637013
O O5 0.252024 0.033435 0.695408
O O6 0.369737 0.047001 0.621205
O O7 0.721497 0.309436 0.500000
O O8 0.795381 0.393499 0.424142
O O9 0.680320 0.251941 0.412801
O O10 0.390165 0.428135 0.217356
O O11 0.313068 0.566472 0.276516
O O12 0.781412 0.281412 0.750000
O O13 0.803672 0.368818 0.664568
O O14 0.663316 0.260960 0.678387
O O15 0.842120 0.539190 0.370412
#
# Coordination Sequence:
#
# PCOD9564646 Si02
#       7
#    16  16  16  16  16  16  16
#     4  10  19  34  59  90 125 162 201 252 316 382
#     4  11  20  37  59  89 125 167 211 255 314 384
#     4  10  23  42  64  93 126 165 215 267 322 386
#     4  11  22  34  57  89 122 164 209 254 308 372
#     4  11  21  40  60  87 124 167 211 263 314 371
#     4  10  23  40  62  89 125 167 213 260 317 379
#     4  11  23  41  65  91 127 171 212 266 321 377
#
# _framework density 20.085446999999998
#
# number of rings (size 3 to 8) (size 9 to 14) (size 15 to 20)
#    0.000    1.429    2.857    3.000    2.000    2.286 
#    0.000    0.714    0.000    6.429    0.000    4.000 
#    0.000    0.000    0.000    0.000    0.000    0.000 
#
# Total GULP energy -623525.620153 kJ/mol
# GULP energy per Si atom -5567.193037 kJ/mol
# Density = 2.003973 g / cm^3
# Si number density = 20.085447 Si / 1000 Ang^3
#
#
#
# Elastic Constant Matrix: (Units=GPa)
#
#
# Indices 1 2 3 4 5 6 
#
# 1 66.2286 11.8081 15.0540 0.0000 0.0000 0.0000
# 2 11.8081 66.2286 15.0540 0.0000 0.0000 0.0000
# 3 15.0540 15.0540 110.1917 0.0000 0.0000 0.0000
# 4 0.0000 0.0000 0.0000 8.5873 0.0000 0.0000
# 5 0.0000 0.0000 0.0000 0.0000 8.5873 0.0000
# 6 0.0000 0.0000 0.0000 0.0000 0.0000 18.0217
#
#
#
# Elastic Compliance Matrix: (Units=1/GPa)
#
#
# Indices 1 2 3 4 5 6 
#
# 1 0.015951 -0.002424 -0.001848 0.000000 0.000000 0.000000
# 2 -0.002424 0.015951 -0.001848 0.000000 0.000000 0.000000
# 3 -0.001848 -0.001848 0.009580 0.000000 0.000000 0.000000
# 4 0.000000 0.000000 0.000000 0.116451 0.000000 0.000000
# 5 0.000000 0.000000 0.000000 0.000000 0.116451 0.000000
# 6 0.000000 0.000000 0.000000 0.000000 0.000000 0.055489
#
#
# Mechanical properties :
#
#
# Convention : Reuss Voigt Hill
#
# Bulk Modulus (GPa) = 34.19653 36.27569 35.23611
# Shear Modulus (GPa) = 14.21013 20.42144 17.31578
#
# Velocity S-wave (km/s) = 2.66274 3.19208 2.93935
# Velocity P-wave (km/s) = 5.14938 5.62901 5.39452
#
# Compressibility (1/GPa) = 0.02924274
#
# Stress axis : x y z
#
# Youngs Moduli (GPa) = 62.69010 62.69010 104.38354
#
# Poissons Ratio (x) = 0.15196 0.19291
# Poissons Ratio (y) = 0.15196 0.19291
# Poissons Ratio (z) = 0.11586 0.11586
#
# Static dielectric constant tensor:
#      x y z
#    x 1.766900 0.000000 0.000000 
#    y 0.000000 1.766900 0.000000 
#    z 0.000000 0.000000 1.735690 
# 
# From -- ./inp_files/6893.got.cif
#   From: 2010.05.17/outbox.cif.g08.bks.cpg/sg128_4_cif.got.tgz:6893.got - 2010.05.20 12:07:25.
