data_PCOD9564806
_publ_section_title
;
Structure prediction by ZEFSAII (Michael W. Deem and Ramdas Pophale) SiO2 
 PCOD9564806
Probable space group: P 4/M N C
;
_chemical_formula_sum "Si O2"
_cell_formula_units_Z 64
_cell_length_a 20.332709
_cell_length_b 20.332709
_cell_length_c 8.286244
_cell_angle_alpha 90.000000
_cell_angle_beta 90.000000
_cell_angle_gamma 90.000000
_cell_volume 3425.691166
_symmetry_space_group_name_H-M "P 4/M N C"
_symmetry_group_IT_number 128
_symmetry_cell_setting 'tetragonal'
loop_
_space_group_symop_operation_xyz
x,y,z
-y,x,z
-x,-y,z
y,-x,z
1/2+x,1/2-y,1/2-z
1/2-x,1/2+y,1/2-z
1/2+y,1/2+x,1/2-z
1/2-y,1/2-x,1/2-z
-x,-y,-z
y,-x,-z
x,y,-z
-y,x,-z
1/2-x,1/2+y,1/2+z
1/2+x,1/2-y,1/2+z
1/2-y,1/2-x,1/2+z
1/2+y,1/2+x,1/2+z
loop_
_atom_site_type_symbol
_atom_site_label
_atom_site_fract_x
_atom_site_fract_y
_atom_site_fract_z
Si Si1 0.255472 0.858951 0.691537
Si Si2 0.896911 0.502865 0.693680
Si Si3 0.151217 0.752407 0.190862
Si Si4 0.246864 0.506160 0.186956
O O1 0.321709 0.821709 0.750000
O O2 0.261996 0.865923 0.500000
O O3 0.196947 0.808695 0.732567
O O4 0.238753 0.932555 0.755253
O O5 0.929398 0.570603 0.750000
O O6 0.887000 0.501081 0.500000
O O7 0.831278 0.492113 0.792045
O O8 0.947442 0.447442 0.750000
O O9 0.182446 0.682446 0.250000
O O10 0.075054 0.766633 0.231403
O O11 0.159987 0.753347 0.000000
O O12 0.267369 0.508890 0.000000
#
# Coordination Sequence:
#
# PCOD9564806 Si02
#       4
#    16  16  16  16
#     4  10  21  37  58  82 111 145 181 225 272 324
#     4  11  21  33  48  70 103 140 177 215 260 314
#     4  11  22  37  58  82 112 146 183 227 272 324
#     4  11  22  36  55  79 107 140 180 223 270 323
#
# _framework density 18.682362999999999
#
# number of rings (size 3 to 8) (size 9 to 14) (size 15 to 20)
#    0.000    1.250    0.000    9.750    0.000    6.000 
#    0.000    0.000    0.000    0.750    0.000    5.250 
#    0.000    0.000    0.000    0.000    0.000    0.000 
#
# Total GULP energy -357005.359322 kJ/mol
# GULP energy per Si atom -5578.208739 kJ/mol
# Density = 1.863984 g / cm^3
# Si number density = 18.682363 Si / 1000 Ang^3
#
#
#
# Elastic Constant Matrix: (Units=GPa)
#
#
# Indices 1 2 3 4 5 6 
#
# 1 107.8074 12.4397 -6.0661 0.0000 0.0000 0.0000
# 2 12.4397 107.8096 -6.0670 0.0000 0.0000 0.0000
# 3 -6.0661 -6.0670 48.4938 0.0000 0.0000 0.0000
# 4 0.0000 0.0000 0.0000 50.6574 0.0000 0.0000
# 5 0.0000 0.0000 0.0000 0.0000 50.6512 0.0000
# 6 0.0000 0.0000 0.0000 0.0000 0.0000 25.8502
#
#
#
# Elastic Compliance Matrix: (Units=1/GPa)
#
#
# Indices 1 2 3 4 5 6 
#
# 1 0.009454 -0.001032 0.001054 0.000000 0.000000 0.000000
# 2 -0.001032 0.009454 0.001054 0.000000 0.000000 0.000000
# 3 0.001054 0.001054 0.020885 0.000000 0.000000 0.000000
# 4 0.000000 0.000000 0.000000 0.019740 0.000000 0.000000
# 5 0.000000 0.000000 0.000000 0.000000 0.019743 0.000000
# 6 0.000000 0.000000 0.000000 0.000000 0.000000 0.038684
#
#
# Mechanical properties :
#
#
# Convention : Reuss Voigt Hill
#
# Bulk Modulus (GPa) = 23.84116 29.41378 26.62747
# Shear Modulus (GPa) = 38.52359 43.01870 40.77114
#
# Velocity S-wave (km/s) = 4.54588 4.80379 4.67661
# Velocity P-wave (km/s) = 6.35157 6.82252 6.59125
#
# Compressibility (1/GPa) = 0.04194426
#
# Stress axis : x y z
#
# Youngs Moduli (GPa) = 105.77402 105.77595 47.88171
#
# Poissons Ratio (x) = 0.10912 -0.05045
# Poissons Ratio (y) = 0.10911 -0.05045
# Poissons Ratio (z) = -0.11144 -0.11146
#
# Static dielectric constant tensor:
#      x y z
#    x 1.944090 0.000000 0.000000 
#    y 0.000000 1.944080 0.000000 
#    z 0.000000 0.000000 1.648100 
# 
# From -- ./inp_files/1012.got.cif
#   From: 2010.05.17/outbox.cif.g08.bks.cpg/sg128_1_cif.got.tgz:1012.got - 2010.05.20 12:07:25.
