data_PCOD9564200
_publ_section_title
;
Structure prediction by ZEFSAII (Michael W. Deem and Ramdas Pophale) SiO2 
 PCOD9564200
Probable space group: P 4/M B M
;
_chemical_formula_sum "Si O2"
_cell_formula_units_Z 88
_cell_length_a 13.388539
_cell_length_b 13.388539
_cell_length_c 25.910212
_cell_angle_alpha 90.000000
_cell_angle_beta 90.000000
_cell_angle_gamma 90.000000
_cell_volume 4644.482624
_symmetry_space_group_name_H-M "P 4/M B M"
_symmetry_group_IT_number 127
_symmetry_cell_setting 'tetragonal'
loop_
_space_group_symop_operation_xyz
x,y,z
-y,x,z
-x,-y,z
y,-x,z
1/2+x,1/2-y,-z
1/2-x,1/2+y,-z
1/2+y,1/2+x,-z
1/2-y,1/2-x,-z
-x,-y,-z
y,-x,-z
x,y,-z
-y,x,-z
1/2-x,1/2+y,z
1/2+x,1/2-y,z
1/2-y,1/2-x,z
1/2+y,1/2+x,z
loop_
_atom_site_type_symbol
_atom_site_label
_atom_site_fract_x
_atom_site_fract_y
_atom_site_fract_z
Si Si1 0.087072 0.243133 0.559792
Si Si2 0.774062 0.895073 0.621536
Si Si3 0.905873 0.762298 0.197439
Si Si4 0.833120 0.016261 0.912292
Si Si5 0.332243 0.001617 0.000000
Si Si6 0.735356 0.404437 0.739342
O O1 0.061999 0.224841 0.500000
O O2 0.168618 0.331383 0.561485
O O3 0.136087 0.146963 0.586939
O O4 0.991437 0.269663 0.593541
O O5 0.691078 0.808923 0.622468
O O6 0.803065 0.914633 0.680801
O O7 0.824664 0.675337 0.187990
O O8 0.962553 0.793100 0.145216
O O9 0.847717 0.855515 0.223302
O O10 0.989845 0.730970 0.238317
O O11 0.913693 0.105101 0.920360
O O12 0.740255 0.012266 0.951004
O O13 0.415396 0.915396 0.000000
O O14 0.393397 0.106604 0.000000
O O15 0.826990 0.326990 0.739165
#
# Coordination Sequence:
#
# PCOD9564200 Si02
#       6
#    16  16  16  16   8  16
#     4  10  21  37  57  82 112 149 196 248 304 367
#     4  10  21  38  58  83 116 155 197 246 304 368
#     4  11  22  39  63  90 124 162 204 254 308 362
#     4  11  23  42  68  97 127 165 214 260 307 364
#     4  11  26  45  66  96 134 175 212 255 312 364
#     4  10  22  38  59  87 119 158 203 248 305 369
#
# _framework density 18.947210999999999
#
# number of rings (size 3 to 8) (size 9 to 14) (size 15 to 20)
#    0.000    1.545    1.818    2.727    0.000    8.364 
#    0.000    5.455    0.000    0.000    0.000    0.000 
#    0.000    0.000    0.000    0.000    0.000    0.000 
#
# Total GULP energy -491280.501014 kJ/mol
# GULP energy per Si atom -5582.732966 kJ/mol
# Density = 1.890409 g / cm^3
# Si number density = 18.947211 Si / 1000 Ang^3
#
#
#
# Elastic Constant Matrix: (Units=GPa)
#
#
# Indices 1 2 3 4 5 6 
#
# 1 115.7607 -23.9807 54.0218 0.0000 0.0000 0.0000
# 2 -23.9807 115.7600 54.0215 0.0000 0.0000 0.0000
# 3 54.0218 54.0215 147.2140 0.0000 0.0000 0.0000
# 4 0.0000 0.0000 0.0000 23.6752 0.0000 0.0000
# 5 0.0000 0.0000 0.0000 0.0000 23.6758 0.0000
# 6 0.0000 0.0000 0.0000 0.0000 0.0000 9.1992
#
#
#
# Elastic Compliance Matrix: (Units=1/GPa)
#
#
# Indices 1 2 3 4 5 6 
#
# 1 0.013169 0.006013 -0.007039 0.000000 0.000000 0.000000
# 2 0.006013 0.013169 -0.007039 0.000000 0.000000 0.000000
# 3 -0.007039 -0.007039 0.011959 0.000000 0.000000 0.000000
# 4 0.000000 0.000000 0.000000 0.042238 0.000000 0.000000
# 5 0.000000 0.000000 0.000000 0.000000 0.042237 0.000000
# 6 0.000000 0.000000 0.000000 0.000000 0.000000 0.108705
#
#
# Mechanical properties :
#
#
# Convention : Reuss Voigt Hill
#
# Bulk Modulus (GPa) = 45.11242 60.76221 52.93732
# Shear Modulus (GPa) = 19.60806 30.95483 25.28145
#
# Velocity S-wave (km/s) = 3.22044 4.04634 3.65678
# Velocity P-wave (km/s) = 6.13918 7.34638 6.76974
#
# Compressibility (1/GPa) = 0.02216684
#
# Stress axis : x y z
#
# Youngs Moduli (GPa) = 75.93568 75.93535 83.61955
#
# Poissons Ratio (x) = -0.45660 0.58860
# Poissons Ratio (y) = -0.45660 0.58860
# Poissons Ratio (z) = 0.53451 0.53451
#
# Static dielectric constant tensor:
#      x y z
#    x 1.648570 0.000000 0.000000 
#    y 0.000000 1.648570 0.000000 
#    z 0.000000 0.000000 1.654770 
# 
# From -- ./inp_files/6553.got.cif
#   From: 2010.05.17/outbox.cif.g08.bks.cpg/sg127_4_cif.got.tgz:6553.got - 2010.05.20 12:03:00.
