data_PCOD9564400
_publ_section_title
;
Structure prediction by ZEFSAII (Michael W. Deem and Ramdas Pophale) SiO2 
 PCOD9564400
Probable space group: P 4/M B M
;
_chemical_formula_sum "Si O2"
_cell_formula_units_Z 52
_cell_length_a 17.732679
_cell_length_b 17.732679
_cell_length_c 7.520774
_cell_angle_alpha 90.000000
_cell_angle_beta 90.000000
_cell_angle_gamma 90.000000
_cell_volume 2364.891625
_symmetry_space_group_name_H-M "P 4/M B M"
_symmetry_group_IT_number 127
_symmetry_cell_setting 'tetragonal'
loop_
_space_group_symop_operation_xyz
x,y,z
-y,x,z
-x,-y,z
y,-x,z
1/2+x,1/2-y,-z
1/2-x,1/2+y,-z
1/2+y,1/2+x,-z
1/2-y,1/2-x,-z
-x,-y,-z
y,-x,-z
x,y,-z
-y,x,-z
1/2-x,1/2+y,z
1/2+x,1/2-y,z
1/2-y,1/2-x,z
1/2+y,1/2+x,z
loop_
_atom_site_type_symbol
_atom_site_label
_atom_site_fract_x
_atom_site_fract_y
_atom_site_fract_z
Si Si1 0.704433 0.204433 0.000000
Si Si2 0.031285 0.789226 0.786317
Si Si3 0.496172 0.879299 0.783495
Si Si4 0.686686 0.632147 0.698985
O O1 0.753820 0.159797 0.154701
O O2 0.015228 0.703823 0.722541
O O3 0.109699 0.820643 0.716497
O O4 0.955670 0.832662 0.733004
O O5 0.037386 0.788283 0.000000
O O6 0.562836 0.937165 0.737292
O O7 0.418185 0.918185 0.725129
O O8 0.492407 0.876452 0.000000
O O9 0.716665 0.640548 0.500000
#
# Coordination Sequence:
#
# PCOD9564400 Si02
#       4
#     4  16  16  16
#     4  12  26  48  72 104 146 192 230 300 362 428
#     4  11  22  42  71  99 141 189 238 294 364 428
#     4   8  16  30  56  93 132 177 224 273 340 425
#     4  12  27  46  72 107 143 188 242 298 359 429
#
# _framework density 21.988323000000001
#
# number of rings (size 3 to 8) (size 9 to 14) (size 15 to 20)
#    0.000    1.538    3.077    2.308    4.308    0.615 
#    0.000    3.077    0.000    0.000    0.000    8.615 
#    0.000    0.000    0.000    0.000    0.000    0.000 
#
# Total GULP energy -289791.501901 kJ/mol
# GULP energy per Si atom -5572.913498 kJ/mol
# Density = 2.193828 g / cm^3
# Si number density = 21.988323 Si / 1000 Ang^3
#
#
#
# Elastic Constant Matrix: (Units=GPa)
#
#
# Indices 1 2 3 4 5 6 
#
# 1 51.0917 32.9705 5.3449 0.0000 0.0000 0.0000
# 2 32.9705 51.0917 5.3449 0.0000 0.0000 0.0000
# 3 5.3449 5.3449 163.1859 0.0000 0.0000 0.0000
# 4 0.0000 0.0000 0.0000 -134.1633 0.0000 0.0000
# 5 0.0000 0.0000 0.0000 0.0000 -134.1633 0.0000
# 6 0.0000 0.0000 0.0000 0.0000 0.0000 30.0849
#
#
#
# Elastic Compliance Matrix: (Units=1/GPa)
#
#
# Indices 1 2 3 4 5 6 
#
# 1 0.033565 -0.021619 -0.000391 0.000000 0.000000 0.000000
# 2 -0.021619 0.033565 -0.000391 0.000000 0.000000 0.000000
# 3 -0.000391 -0.000391 0.006154 0.000000 0.000000 0.000000
# 4 0.000000 0.000000 0.000000 -0.007454 0.000000 0.000000
# 5 0.000000 0.000000 0.000000 0.000000 -0.007454 0.000000
# 6 0.000000 0.000000 0.000000 0.000000 0.000000 0.033239
#
#
# Mechanical properties :
#
#
# Convention : Reuss Voigt Hill
#
# Bulk Modulus (GPa) = 35.11240 39.18778 37.15009
# Shear Modulus (GPa) = 34.26729 -32.86772 0.69979
#
# Velocity S-wave (km/s) = 3.95198 -3.87043 0.56475
# Velocity P-wave (km/s) = 6.06857 1.45358 4.16621
#
# Compressibility (1/GPa) = 0.02847996
#
# Stress axis : x y z
#
# Youngs Moduli (GPa) = 29.79315 29.79315 162.50620
#
# Poissons Ratio (x) = 0.64410 0.06358
# Poissons Ratio (y) = 0.64410 0.06358
# Poissons Ratio (z) = 0.01166 0.01166
#
# Static dielectric constant tensor:
#      x y z
#    x 1.798310 0.000000 0.000000 
#    y 0.000000 1.798310 0.000000 
#    z 0.000000 0.000000 1.807540 
# 
# From -- ./inp_files/970.got.cif
#   From: 2010.05.17/outbox.cif.g08.bks.cpg/sg127_1_cif.got.tgz:970.got - 2010.05.20 12:03:00.
