data_PCOD9564728
_publ_section_title
;
Structure prediction by ZEFSAII (Michael W. Deem and Ramdas Pophale) SiO2 
 PCOD9564728
Probable space group: P 4/M N C
;
_chemical_formula_sum "Si O2"
_cell_formula_units_Z 88
_cell_length_a 14.333662
_cell_length_b 14.333662
_cell_length_c 22.454425
_cell_angle_alpha 90.000000
_cell_angle_beta 90.000000
_cell_angle_gamma 90.000000
_cell_volume 4613.348432
_symmetry_space_group_name_H-M "P 4/M N C"
_symmetry_group_IT_number 128
_symmetry_cell_setting 'tetragonal'
loop_
_space_group_symop_operation_xyz
x,y,z
-y,x,z
-x,-y,z
y,-x,z
1/2+x,1/2-y,1/2-z
1/2-x,1/2+y,1/2-z
1/2+y,1/2+x,1/2-z
1/2-y,1/2-x,1/2-z
-x,-y,-z
y,-x,-z
x,y,-z
-y,x,-z
1/2-x,1/2+y,1/2+z
1/2+x,1/2-y,1/2+z
1/2-y,1/2-x,1/2+z
1/2+y,1/2+x,1/2+z
loop_
_atom_site_type_symbol
_atom_site_label
_atom_site_fract_x
_atom_site_fract_y
_atom_site_fract_z
Si Si1 0.301343 0.303135 0.898445
Si Si2 0.732432 0.029239 0.000000
Si Si3 0.524498 0.345000 0.622235
Si Si4 0.372971 0.166167 0.000000
Si Si5 0.749729 0.652658 0.701634
Si Si6 0.375592 0.593517 0.211224
Si Si7 0.797404 0.590727 0.000000
O O1 0.335758 0.222099 0.942321
O O2 0.220369 0.267828 0.854091
O O3 0.380671 0.339975 0.854257
O O4 0.262782 0.384431 0.941439
O O5 0.797669 0.030370 0.057994
O O6 0.664394 0.117860 0.000000
O O7 0.670524 0.936176 0.000000
O O8 0.602615 0.426247 0.628506
O O9 0.552464 0.268473 0.671469
O O10 0.484853 0.168537 0.000000
O O11 0.832131 0.667870 0.750000
O O12 0.657634 0.677277 0.740638
O O13 0.374834 0.483190 0.218613
#
# Coordination Sequence:
#
# PCOD9564728 Si02
#       7
#    16   8  16   8  16  16   8
#     4  10  21  39  59  83 117 154 199 241 299 355
#     4  12  23  37  60  86 124 156 202 245 313 371
#     4  11  22  36  59  93 126 156 196 254 314 367
#     4  11  24  38  61  88 117 158 201 248 300 372
#     4  10  20  35  55  82 118 159 195 236 298 359
#     4  10  20  35  58  87 117 147 189 244 298 352
#     4  11  22  40  59  84 115 158 199 248 296 366
#
# _framework density 19.075081999999998
#
# number of rings (size 3 to 8) (size 9 to 14) (size 15 to 20)
#    0.000    1.455    1.818    4.091    2.545    2.182 
#    0.000    0.000    0.000    4.364    0.000    3.818 
#    0.000    0.000    0.000    0.000    0.000    0.000 
#
# Total GULP energy -491293.893956 kJ/mol
# GULP energy per Si atom -5582.885159 kJ/mol
# Density = 1.903167 g / cm^3
# Si number density = 19.075082 Si / 1000 Ang^3
#
#
#
# Elastic Constant Matrix: (Units=GPa)
#
#
# Indices 1 2 3 4 5 6 
#
# 1 56.0445 22.7409 30.7138 0.0000 0.0000 0.0000
# 2 22.7409 56.0459 30.7139 0.0000 0.0000 0.0000
# 3 30.7138 30.7139 140.6025 0.0000 0.0000 0.0000
# 4 0.0000 0.0000 0.0000 28.2121 0.0000 0.0000
# 5 0.0000 0.0000 0.0000 0.0000 28.2120 0.0000
# 6 0.0000 0.0000 0.0000 0.0000 0.0000 30.1200
#
#
#
# Elastic Compliance Matrix: (Units=1/GPa)
#
#
# Indices 1 2 3 4 5 6 
#
# 1 0.022662 -0.007364 -0.003342 0.000000 0.000000 0.000000
# 2 -0.007364 0.022662 -0.003342 0.000000 0.000000 0.000000
# 3 -0.003342 -0.003342 0.008572 0.000000 0.000000 0.000000
# 4 0.000000 0.000000 0.000000 0.035446 0.000000 0.000000
# 5 0.000000 0.000000 0.000000 0.000000 0.035446 0.000000
# 6 0.000000 0.000000 0.000000 0.000000 0.000000 0.033201
#
#
# Mechanical properties :
#
#
# Convention : Reuss Voigt Hill
#
# Bulk Modulus (GPa) = 38.75773 46.78113 42.76943
# Shear Modulus (GPa) = 25.68260 28.54377 27.11319
#
# Velocity S-wave (km/s) = 3.67331 3.87252 3.77423
# Velocity P-wave (km/s) = 6.19302 6.67631 6.43920
#
# Compressibility (1/GPa) = 0.02580131
#
# Stress axis : x y z
#
# Youngs Moduli (GPa) = 44.12589 44.12712 116.65565
#
# Poissons Ratio (x) = 0.32495 0.38985
# Poissons Ratio (y) = 0.32494 0.38983
# Poissons Ratio (z) = 0.14746 0.14746
#
# Static dielectric constant tensor:
#      x y z
#    x 1.661020 0.000000 0.000000 
#    y 0.000000 1.661020 0.000000 
#    z 0.000000 0.000000 1.673790 
# 
# From -- ./inp_files/5676.got.cif
#   From: 2010.05.17/outbox.cif.g08.bks.cpg/sg128_3_cif.got.tgz:5676.got - 2010.05.20 12:07:25.
