data_PCOD9564289
_publ_section_title
;
Structure prediction by ZEFSAII (Michael W. Deem and Ramdas Pophale) SiO2 
 PCOD9564289
Probable space group: P 4/M B M
;
_chemical_formula_sum "Si O2"
_cell_formula_units_Z 120
_cell_length_a 19.585179
_cell_length_b 19.585179
_cell_length_c 15.506459
_cell_angle_alpha 90.000000
_cell_angle_beta 90.000000
_cell_angle_gamma 90.000000
_cell_volume 5947.955703
_symmetry_space_group_name_H-M "P 4/M B M"
_symmetry_group_IT_number 127
_symmetry_cell_setting 'tetragonal'
loop_
_space_group_symop_operation_xyz
x,y,z
-y,x,z
-x,-y,z
y,-x,z
1/2+x,1/2-y,-z
1/2-x,1/2+y,-z
1/2+y,1/2+x,-z
1/2-y,1/2-x,-z
-x,-y,-z
y,-x,-z
x,y,-z
-y,x,-z
1/2-x,1/2+y,z
1/2+x,1/2-y,z
1/2-y,1/2-x,z
1/2+y,1/2+x,z
loop_
_atom_site_type_symbol
_atom_site_label
_atom_site_fract_x
_atom_site_fract_y
_atom_site_fract_z
Si Si1 0.662440 0.050467 0.324876
Si Si2 0.110361 0.004144 0.638322
Si Si3 0.807468 0.418570 0.229695
Si Si4 0.557243 0.687263 0.100169
Si Si5 0.857594 0.071209 0.815895
Si Si6 0.724391 0.663500 0.314133
Si Si7 0.113564 0.503947 0.500000
Si Si8 0.727967 0.398392 0.403497
O O1 0.593962 0.093962 0.309507
O O2 0.722275 0.104798 0.339550
O O3 0.653970 0.008161 0.412633
O O4 0.675757 0.997914 0.247866
O O5 0.183381 0.031923 0.608264
O O6 0.061762 0.067314 0.610723
O O7 0.118517 0.981737 0.739521
O O8 0.873006 0.373006 0.208401
O O9 0.747895 0.413095 0.159261
O O10 0.777618 0.394433 0.321880
O O11 0.586835 0.613994 0.131164
O O12 0.476498 0.684438 0.120082
O O13 0.571386 0.697646 0.000000
O O14 0.815335 0.129478 0.765661
O O15 0.769327 0.730674 0.294198
O O16 0.668311 0.680677 0.386329
O O17 0.054914 0.445087 0.500000
O O18 0.075355 0.575355 0.500000
O O19 0.755952 0.395271 0.500000
#
# Coordination Sequence:
#
# PCOD9564289 Si02
#       8
#    16  16  16  16  16  16   8  16
#     4  10  22  40  65  93 121 165 219 271 326 379
#     4  11  20  38  65  90 127 171 210 260 319 380
#     4  12  25  44  67  93 132 175 213 267 331 390
#     4  12  26  43  69 102 132 166 212 266 327 394
#     4  12  20  44  68  95 131 170 208 267 328 389
#     4  11  22  40  65  90 125 173 221 265 316 382
#     4   9  18  34  56  88 124 154 203 272 323 363
#     4  12  26  41  62  93 132 179 226 267 317 386
#
# _framework density 20.175000000000001
#
# number of rings (size 3 to 8) (size 9 to 14) (size 15 to 20)
#    0.000    0.733    6.667    1.200    1.867    2.933 
#    0.000    1.333    0.000    2.400    0.000    0.933 
#    0.000    0.000    0.000    0.000    0.000    0.000 
#
# Total GULP energy -669689.964414 kJ/mol
# GULP energy per Si atom -5580.749703 kJ/mol
# Density = 2.012908 g / cm^3
# Si number density = 20.175000 Si / 1000 Ang^3
#
#
#
# Elastic Constant Matrix: (Units=GPa)
#
#
# Indices 1 2 3 4 5 6 
#
# 1 78.4344 31.7062 33.7738 0.0000 0.0000 0.0000
# 2 31.7062 78.4345 33.7738 0.0000 0.0000 0.0000
# 3 33.7738 33.7738 122.1982 0.0000 0.0000 0.0000
# 4 0.0000 0.0000 0.0000 7.5345 0.0000 0.0000
# 5 0.0000 0.0000 0.0000 0.0000 7.5345 0.0000
# 6 0.0000 0.0000 0.0000 0.0000 0.0000 43.0125
#
#
#
# Elastic Compliance Matrix: (Units=1/GPa)
#
#
# Indices 1 2 3 4 5 6 
#
# 1 0.016166 -0.005234 -0.003022 0.000000 0.000000 0.000000
# 2 -0.005234 0.016166 -0.003022 0.000000 0.000000 0.000000
# 3 -0.003022 -0.003022 0.009854 0.000000 0.000000 0.000000
# 4 0.000000 0.000000 0.000000 0.132723 0.000000 0.000000
# 5 0.000000 0.000000 0.000000 0.000000 0.132722 0.000000
# 6 0.000000 0.000000 0.000000 0.000000 0.000000 0.023249
#
#
# Mechanical properties :
#
#
# Convention : Reuss Voigt Hill
#
# Bulk Modulus (GPa) = 50.93671 53.06384 52.00028
# Shear Modulus (GPa) = 13.88972 23.60386 18.74679
#
# Velocity S-wave (km/s) = 2.62670 3.42417 3.05160
# Velocity P-wave (km/s) = 5.87381 6.48014 6.18441
#
# Compressibility (1/GPa) = 0.01963221
#
# Stress axis : x y z
#
# Youngs Moduli (GPa) = 61.85681 61.85693 101.48520
#
# Poissons Ratio (x) = 0.32376 0.30664
# Poissons Ratio (y) = 0.32376 0.30664
# Poissons Ratio (z) = 0.18690 0.18690
#
# Static dielectric constant tensor:
#      x y z
#    x 1.764360 0.000000 0.000000 
#    y 0.000000 1.764360 0.000000 
#    z 0.000000 0.000000 1.700670 
# 
# From -- ./inp_files/4671.got.cif
#   From: 2010.05.17/outbox.cif.g08.bks.cpg/sg127_3_cif.got.tgz:4671.got - 2010.05.20 12:03:00.
