data_PCOD9564866
_publ_section_title
;
Structure prediction by ZEFSAII (Michael W. Deem and Ramdas Pophale) SiO2 
 PCOD9564866
Probable space group: P 4/M N C
;
_chemical_formula_sum "Si O2"
_cell_formula_units_Z 92
_cell_length_a 15.003016
_cell_length_b 15.003016
_cell_length_c 19.420483
_cell_angle_alpha 90.000000
_cell_angle_beta 90.000000
_cell_angle_gamma 90.000000
_cell_volume 4371.366017
_symmetry_space_group_name_H-M "P 4/M N C"
_symmetry_group_IT_number 128
_symmetry_cell_setting 'tetragonal'
loop_
_space_group_symop_operation_xyz
x,y,z
-y,x,z
-x,-y,z
y,-x,z
1/2+x,1/2-y,1/2-z
1/2-x,1/2+y,1/2-z
1/2+y,1/2+x,1/2-z
1/2-y,1/2-x,1/2-z
-x,-y,-z
y,-x,-z
x,y,-z
-y,x,-z
1/2-x,1/2+y,1/2+z
1/2+x,1/2-y,1/2+z
1/2-y,1/2-x,1/2+z
1/2+y,1/2+x,1/2+z
loop_
_atom_site_type_symbol
_atom_site_label
_atom_site_fract_x
_atom_site_fract_y
_atom_site_fract_z
Si Si1 0.167357 0.694015 0.852456
Si Si2 0.741971 0.392801 0.500000
Si Si3 0.998147 0.258686 0.356114
Si Si4 0.756078 0.102899 0.000000
Si Si5 0.500000 0.500000 0.667418
Si Si6 0.348744 0.501976 0.000000
Si Si7 0.663266 0.188944 0.647084
Si Si8 0.500121 0.295399 0.710623
O O1 0.182614 0.589853 0.844849
O O2 0.258435 0.746043 0.836007
O O3 0.087952 0.740457 0.810581
O O4 0.144608 0.711805 0.932187
O O5 0.744626 0.497832 0.500000
O O6 0.641493 0.355921 0.500000
O O7 0.997403 0.210723 0.430469
O O8 0.084854 0.319852 0.347094
O O9 0.000188 0.188943 0.292690
O O10 0.709116 0.139460 0.932156
O O11 0.504201 0.389278 0.671679
O O12 0.412167 0.414408 0.000000
O O13 0.584164 0.233877 0.690281
#
# Coordination Sequence:
#
# PCOD9564866 Si02
#       8
#    16   8  16   8   4   8  16  16
#     4  11  24  45  68 104 143 184 232 291 358 426
#     4  10  21  41  69  97 137 178 227 284 350 419
#     4  12  27  44  71 100 142 192 237 291 359 430
#     4  10  21  41  69  97 137 178 227 284 350 419
#     4  12  28  44  72 110 140 188 240 294 368 408
#     4  11  26  44  70 105 138 180 246 309 360 411
#     4  11  24  45  68 104 143 184 232 291 358 426
#     4  12  26  44  74 102 142 189 236 299 353 433
#
# _framework density 21.046053000000001
#
# number of rings (size 3 to 8) (size 9 to 14) (size 15 to 20)
#    0.000    0.783    3.478    3.130    4.870    3.652 
#    0.000    2.609    0.000    0.000    0.000    0.000 
#    0.000    0.000    0.000    0.000    0.000    0.000 
#
# Total GULP energy -513771.659825 kJ/mol
# GULP energy per Si atom -5584.474563 kJ/mol
# Density = 2.099815 g / cm^3
# Si number density = 21.046053 Si / 1000 Ang^3
#
#
#
# Elastic Constant Matrix: (Units=GPa)
#
#
# Indices 1 2 3 4 5 6 
#
# 1 125.7553 -6.5057 -2.3125 0.0000 0.0000 0.0000
# 2 -6.5057 125.7553 -2.3125 0.0000 0.0000 0.0000
# 3 -2.3125 -2.3125 128.3121 0.0000 0.0000 0.0000
# 4 0.0000 0.0000 0.0000 -10.7049 0.0000 0.0000
# 5 0.0000 0.0000 0.0000 0.0000 -10.7049 0.0000
# 6 0.0000 0.0000 0.0000 0.0000 0.0000 27.0415
#
#
#
# Elastic Compliance Matrix: (Units=1/GPa)
#
#
# Indices 1 2 3 4 5 6 
#
# 1 0.007976 0.000415 0.000151 0.000000 0.000000 0.000000
# 2 0.000415 0.007976 0.000151 0.000000 0.000000 0.000000
# 3 0.000151 0.000151 0.007799 0.000000 0.000000 0.000000
# 4 0.000000 0.000000 0.000000 -0.093416 0.000000 0.000000
# 5 0.000000 0.000000 0.000000 0.000000 -0.093416 0.000000
# 6 0.000000 0.000000 0.000000 0.000000 0.000000 0.036980
#
#
# Mechanical properties :
#
#
# Convention : Reuss Voigt Hill
#
# Bulk Modulus (GPa) = 39.70272 39.72901 39.71586
# Shear Modulus (GPa) = -41.96753 27.18994 -7.38880
#
# Velocity S-wave (km/s) = -4.47036 3.59824 -1.87574
# Velocity P-wave (km/s) = 2.78205 6.01508 3.77103
#
# Compressibility (1/GPa) = 0.02518719
#
# Stress axis : x y z
#
# Youngs Moduli (GPa) = 125.37267 125.37267 128.22237
#
# Poissons Ratio (x) = -0.05208 -0.01939
# Poissons Ratio (y) = -0.05208 -0.01939
# Poissons Ratio (z) = -0.01896 -0.01896
#
# Static dielectric constant tensor:
#      x y z
#    x 1.719720 0.000000 0.000000 
#    y 0.000000 1.719720 0.000000 
#    z 0.000000 0.000000 1.808060 
# 
# From -- ./inp_files/5835.got.cif
#   From: 2010.05.17/outbox.cif.g08.bks.cpg/sg128_3_cif.got.tgz:5835.got - 2010.05.20 12:07:25.
