data_PCOD9564352
_publ_section_title
;
Structure prediction by ZEFSAII (Michael W. Deem and Ramdas Pophale) SiO2 
 PCOD9564352
Probable space group: P 4/M B M
;
_chemical_formula_sum "Si O2"
_cell_formula_units_Z 96
_cell_length_a 15.154116
_cell_length_b 15.154116
_cell_length_c 24.451201
_cell_angle_alpha 90.000000
_cell_angle_beta 90.000000
_cell_angle_gamma 90.000000
_cell_volume 5615.150622
_symmetry_space_group_name_H-M "P 4/M B M"
_symmetry_group_IT_number 127
_symmetry_cell_setting 'tetragonal'
loop_
_space_group_symop_operation_xyz
x,y,z
-y,x,z
-x,-y,z
y,-x,z
1/2+x,1/2-y,-z
1/2-x,1/2+y,-z
1/2+y,1/2+x,-z
1/2-y,1/2-x,-z
-x,-y,-z
y,-x,-z
x,y,-z
-y,x,-z
1/2-x,1/2+y,z
1/2+x,1/2-y,z
1/2-y,1/2-x,z
1/2+y,1/2+x,z
loop_
_atom_site_type_symbol
_atom_site_label
_atom_site_fract_x
_atom_site_fract_y
_atom_site_fract_z
Si Si1 0.138934 0.947191 0.437395
Si Si2 0.262916 0.384536 0.667398
Si Si3 0.602960 0.752631 0.840267
Si Si4 0.603170 0.606566 0.240476
Si Si5 0.970956 0.145505 0.937047
Si Si6 0.856675 0.498210 0.254647
O O1 0.169563 0.935495 0.500000
O O2 0.207270 0.918677 0.391462
O O3 0.048904 0.890776 0.430571
O O4 0.200605 0.299396 0.663927
O O5 0.350129 0.364578 0.703526
O O6 0.207916 0.458959 0.700645
O O7 0.681654 0.818347 0.855353
O O8 0.640030 0.666669 0.808139
O O9 0.549712 0.718880 0.892509
O O10 0.541205 0.803372 0.796482
O O11 0.497938 0.618136 0.236925
O O12 0.066074 0.099635 0.929536
O O13 0.964941 0.175785 0.000000
O O14 0.923740 0.576261 0.237534
O O15 0.918336 0.418336 0.276293
#
# Coordination Sequence:
#
# PCOD9564352 Si02
#       6
#    16  16  16  16  16  16
#     4   9  19  37  57  76 104 143 180 215 267 328
#     4  11  21  34  54  81 109 137 180 229 266 313
#     4  11  21  34  54  81 109 137 180 229 266 313
#     4  11  21  34  50  74 109 143 174 212 270 325
#     4   9  19  37  57  76 104 143 180 215 267 328
#     4   9  20  38  55  74 108 150 181 214 268 325
#
# _framework density 17.096602000000001
#
# number of rings (size 3 to 8) (size 9 to 14) (size 15 to 20)
#    0.000    2.000    1.667    3.500    0.000    3.333 
#    0.000    0.000    0.000    3.000    0.000    4.667 
#    0.000    0.000    0.000    0.000    0.000    0.000 
#
# Total GULP energy -535528.861370 kJ/mol
# GULP energy per Si atom -5578.425639 kJ/mol
# Density = 1.705769 g / cm^3
# Si number density = 17.096602 Si / 1000 Ang^3
#
#
#
# Elastic Constant Matrix: (Units=GPa)
#
#
# Indices 1 2 3 4 5 6 
#
# 1 44.8906 -3.1148 2.7490 0.0000 0.0000 0.0000
# 2 -3.1148 44.8906 2.7490 0.0000 0.0000 0.0000
# 3 2.7490 2.7490 53.2952 0.0000 0.0000 0.0000
# 4 0.0000 0.0000 0.0000 11.7968 0.0000 0.0000
# 5 0.0000 0.0000 0.0000 0.0000 11.7968 0.0000
# 6 0.0000 0.0000 0.0000 0.0000 0.0000 14.4988
#
#
#
# Elastic Compliance Matrix: (Units=1/GPa)
#
#
# Indices 1 2 3 4 5 6 
#
# 1 0.022466 0.001635 -0.001243 0.000000 0.000000 0.000000
# 2 0.001635 0.022466 -0.001243 0.000000 0.000000 0.000000
# 3 -0.001243 -0.001243 0.018892 0.000000 0.000000 0.000000
# 4 0.000000 0.000000 0.000000 0.084769 0.000000 0.000000
# 5 0.000000 0.000000 0.000000 0.000000 0.084769 0.000000
# 6 0.000000 0.000000 0.000000 0.000000 0.000000 0.068971
#
#
# Mechanical properties :
#
#
# Convention : Reuss Voigt Hill
#
# Bulk Modulus (GPa) = 16.09765 16.42699 16.26232
# Shear Modulus (GPa) = 15.39686 16.99803 16.19744
#
# Velocity S-wave (km/s) = 3.00422 3.15657 3.08134
# Velocity P-wave (km/s) = 4.63357 4.78690 4.71086
#
# Compressibility (1/GPa) = 0.06212086
#
# Stress axis : x y z
#
# Youngs Moduli (GPa) = 44.51178 44.51178 52.93337
#
# Poissons Ratio (x) = -0.07277 0.06580
# Poissons Ratio (y) = -0.07277 0.06580
# Poissons Ratio (z) = 0.05534 0.05534
#
# Static dielectric constant tensor:
#      x y z
#    x 1.590460 0.000000 0.000000 
#    y 0.000000 1.590460 0.000000 
#    z 0.000000 0.000000 1.567550 
# 
# From -- ./inp_files/5769.got.cif
#   From: 2010.05.17/outbox.cif.g08.bks.cpg/sg127_3_cif.got.tgz:5769.got - 2010.05.20 12:03:00.
