data_PCOD9564826
_publ_section_title
;
Structure prediction by ZEFSAII (Michael W. Deem and Ramdas Pophale) SiO2 
 PCOD9564826
Probable space group: P 4/M N C
;
_chemical_formula_sum "Si O2"
_cell_formula_units_Z 80
_cell_length_a 12.667707
_cell_length_b 12.667707
_cell_length_c 27.534347
_cell_angle_alpha 90.000000
_cell_angle_beta 90.000000
_cell_angle_gamma 90.000000
_cell_volume 4418.458708
_symmetry_space_group_name_H-M "P 4/M N C"
_symmetry_group_IT_number 128
_symmetry_cell_setting 'tetragonal'
loop_
_space_group_symop_operation_xyz
x,y,z
-y,x,z
-x,-y,z
y,-x,z
1/2+x,1/2-y,1/2-z
1/2-x,1/2+y,1/2-z
1/2+y,1/2+x,1/2-z
1/2-y,1/2-x,1/2-z
-x,-y,-z
y,-x,-z
x,y,-z
-y,x,-z
1/2-x,1/2+y,1/2+z
1/2+x,1/2-y,1/2+z
1/2-y,1/2-x,1/2+z
1/2+y,1/2+x,1/2+z
loop_
_atom_site_type_symbol
_atom_site_label
_atom_site_fract_x
_atom_site_fract_y
_atom_site_fract_z
Si Si1 0.370154 0.790183 0.443891
Si Si2 0.966170 0.172446 0.188816
Si Si3 0.494418 0.834538 0.768200
Si Si4 0.103047 0.722109 0.092100
Si Si5 0.872519 0.503965 0.119802
O O1 0.342852 0.808180 0.500000
O O2 0.496500 0.773177 0.439425
O O3 0.307856 0.688367 0.424205
O O4 0.345476 0.892498 0.411005
O O5 0.972068 0.228967 0.240571
O O6 0.938597 0.255393 0.146823
O O7 0.080037 0.118837 0.182802
O O8 0.579873 0.920128 0.750000
O O9 0.493165 0.826288 0.826064
O O10 0.382059 0.882059 0.750000
O O11 0.152809 0.605343 0.092569
O O12 0.000000 0.500000 0.125588
#
# Coordination Sequence:
#
# PCOD9564826 Si02
#       5
#    16  16  16  16  16
#     4  11  24  39  60  89 120 160 206 255 310 362
#     4  11  23  37  54  84 125 159 187 239 307 369
#     4  11  19  34  58  86 112 149 198 236 284 357
#     4  11  21  38  61  85 120 159 200 249 310 370
#     4  10  21  38  60  88 119 153 204 255 299 361
#
# _framework density 18.10586
#
# number of rings (size 3 to 8) (size 9 to 14) (size 15 to 20)
#    0.000    1.200    6.000    1.800    0.000    7.200 
#    0.000    1.000    0.000    0.600    0.000    1.400 
#    0.000    0.000    0.000    0.000    0.000    0.000 
#
# Total GULP energy -446575.840881 kJ/mol
# GULP energy per Si atom -5582.198011 kJ/mol
# Density = 1.806465 g / cm^3
# Si number density = 18.105860 Si / 1000 Ang^3
#
#
#
# Elastic Constant Matrix: (Units=GPa)
#
#
# Indices 1 2 3 4 5 6 
#
# 1 47.8080 64.1424 35.2313 0.0000 0.0000 0.0000
# 2 64.1424 47.8088 35.2303 0.0000 0.0000 0.0000
# 3 35.2313 35.2303 129.1505 0.0000 0.0000 0.0000
# 4 0.0000 0.0000 0.0000 18.3024 0.0000 0.0000
# 5 0.0000 0.0000 0.0000 0.0000 18.3015 0.0000
# 6 0.0000 0.0000 0.0000 0.0000 0.0000 8.4377
#
#
#
# Elastic Compliance Matrix: (Units=1/GPa)
#
#
# Indices 1 2 3 4 5 6 
#
# 1 -0.025220 0.036003 -0.002941 0.000000 0.000000 0.000000
# 2 0.036003 -0.025219 -0.002942 0.000000 0.000000 0.000000
# 3 -0.002941 -0.002942 0.009348 0.000000 0.000000 0.000000
# 4 0.000000 0.000000 0.000000 0.054638 0.000000 0.000000
# 5 0.000000 0.000000 0.000000 0.000000 0.054640 0.000000
# 6 0.000000 0.000000 0.000000 0.000000 0.000000 0.118516
#
#
# Mechanical properties :
#
#
# Convention : Reuss Voigt Hill
#
# Bulk Modulus (GPa) = 52.22238 54.88615 53.55426
# Shear Modulus (GPa) = 37.63727 15.01921 26.32824
#
# Velocity S-wave (km/s) = 4.56426 2.88327 3.81744
# Velocity P-wave (km/s) = 7.52875 6.43927 7.00522
#
# Compressibility (1/GPa) = 0.01914888
#
# Stress axis : x y z
#
# Youngs Moduli (GPa) = -39.65177 -39.65318 106.97631
#
# Poissons Ratio (x) = 1.42764 0.31466
# Poissons Ratio (y) = 1.42759 0.31474
# Poissons Ratio (z) = -0.11663 -0.11666
#
# Static dielectric constant tensor:
#      x y z
#    x 1.630290 0.000000 0.000000 
#    y 0.000000 1.630290 0.000000 
#    z 0.000000 0.000000 1.620260 
# 
# From -- ./inp_files/7176.got.cif
#   From: 2010.05.17/outbox.cif.g08.bks.cpg/sg128_4_cif.got.tgz:7176.got - 2010.05.20 12:07:25.
