data_PCOD9564971
_publ_section_title
;
Structure prediction by ZEFSAII (Michael W. Deem and Ramdas Pophale) SiO2 
 PCOD9564971
Probable space group: P 4/M N C
;
_chemical_formula_sum "Si O2"
_cell_formula_units_Z 104
_cell_length_a 17.896202
_cell_length_b 17.896202
_cell_length_c 16.880342
_cell_angle_alpha 90.000000
_cell_angle_beta 90.000000
_cell_angle_gamma 90.000000
_cell_volume 5406.335431
_symmetry_space_group_name_H-M "P 4/M N C"
_symmetry_group_IT_number 128
_symmetry_cell_setting 'tetragonal'
loop_
_space_group_symop_operation_xyz
x,y,z
-y,x,z
-x,-y,z
y,-x,z
1/2+x,1/2-y,1/2-z
1/2-x,1/2+y,1/2-z
1/2+y,1/2+x,1/2-z
1/2-y,1/2-x,1/2-z
-x,-y,-z
y,-x,-z
x,y,-z
-y,x,-z
1/2-x,1/2+y,1/2+z
1/2+x,1/2-y,1/2+z
1/2-y,1/2-x,1/2+z
1/2+y,1/2+x,1/2+z
loop_
_atom_site_type_symbol
_atom_site_label
_atom_site_fract_x
_atom_site_fract_y
_atom_site_fract_z
Si Si1 0.585054 0.006286 0.094478
Si Si2 0.719260 0.522010 0.789182
Si Si3 0.135813 0.335475 0.341744
Si Si4 0.102945 0.929618 0.500000
Si Si5 0.626833 0.647040 0.160455
Si Si6 0.764943 0.264543 0.594264
Si Si7 0.807653 0.402116 0.314424
O O1 0.633553 0.937646 0.125068
O O2 0.500000 0.000000 0.123075
O O3 0.617844 0.082854 0.127938
O O4 0.585455 0.008565 0.000000
O O5 0.784201 0.560914 0.842127
O O6 0.663988 0.459509 0.825152
O O7 0.667352 0.595514 0.773573
O O8 0.761773 0.471535 0.723677
O O9 0.160288 0.339712 0.250000
O O10 0.203783 0.299768 0.390719
O O11 0.138786 0.898246 0.420814
O O12 0.018125 0.900309 0.500000
O O13 0.666576 0.725304 0.141859
O O14 0.778823 0.272426 0.500000
O O15 0.755488 0.343567 0.638267
O O16 0.856364 0.356364 0.250000
#
# Coordination Sequence:
#
# PCOD9564971 Si02
#       7
#    16  16  16   8  16  16  16
#     4  11  25  42  62  92 128 163 206 263 324 385
#     4  11  24  38  61  91 122 164 213 261 309 375
#     4  11  23  43  65  91 123 170 214 263 321 387
#     4  11  20  34  56  84 126 167 199 249 316 387
#     4  11  22  38  58  90 126 162 206 258 314 381
#     4  11  24  39  62  93 127 164 209 266 328 391
#     4  12  23  40  64  91 121 166 215 264 314 379
#
# _framework density 19.236689999999999
#
# number of rings (size 3 to 8) (size 9 to 14) (size 15 to 20)
#    0.000    0.846    5.385    2.308    2.154    0.308 
#    1.385    0.000    0.000    0.000    0.000    0.000 
#    0.000    1.231    0.000    0.000    0.000    0.000 
#
# Total GULP energy -580143.954540 kJ/mol
# GULP energy per Si atom -5578.307255 kJ/mol
# Density = 1.919291 g / cm^3
# Si number density = 19.236690 Si / 1000 Ang^3
#
#
#
# Elastic Constant Matrix: (Units=GPa)
#
#
# Indices 1 2 3 4 5 6 
#
# 1 97.8467 33.3317 32.9067 0.0000 0.0000 0.0000
# 2 33.3317 97.8467 32.9067 0.0000 0.0000 0.0000
# 3 32.9067 32.9067 52.7142 0.0000 0.0000 0.0000
# 4 0.0000 0.0000 0.0000 23.4593 0.0000 0.0000
# 5 0.0000 0.0000 0.0000 0.0000 23.4593 0.0000
# 6 0.0000 0.0000 0.0000 0.0000 0.0000 40.7860
#
#
#
# Elastic Compliance Matrix: (Units=1/GPa)
#
#
# Indices 1 2 3 4 5 6 
#
# 1 0.013300 -0.002200 -0.006929 0.000000 0.000000 0.000000
# 2 -0.002200 0.013300 -0.006929 0.000000 0.000000 0.000000
# 3 -0.006929 -0.006929 0.027621 0.000000 0.000000 0.000000
# 4 0.000000 0.000000 0.000000 0.042627 0.000000 0.000000
# 5 0.000000 0.000000 0.000000 0.000000 0.042627 0.000000
# 6 0.000000 0.000000 0.000000 0.000000 0.000000 0.024518
#
#
# Mechanical properties :
#
#
# Convention : Reuss Voigt Hill
#
# Bulk Modulus (GPa) = 45.23971 49.63309 47.43640
# Shear Modulus (GPa) = 24.57279 27.49174 26.03226
#
# Velocity S-wave (km/s) = 3.57794 3.78449 3.68266
# Velocity P-wave (km/s) = 6.37474 6.70475 6.54183
#
# Compressibility (1/GPa) = 0.02210447
#
# Stress axis : x y z
#
# Youngs Moduli (GPa) = 75.18873 75.18873 36.20461
#
# Poissons Ratio (x) = 0.16545 0.25085
# Poissons Ratio (y) = 0.16545 0.25085
# Poissons Ratio (z) = 0.52097 0.52097
#
# Static dielectric constant tensor:
#      x y z
#    x 1.691080 0.000000 0.000000 
#    y 0.000000 1.691080 0.000000 
#    z 0.000000 0.000000 1.676250 
# 
# From -- ./inp_files/4885.got.cif
#   From: 2010.05.17/outbox.cif.g08.bks.cpg/sg128_3_cif.got.tgz:4885.got - 2010.05.20 12:07:25.
