data_PCOD9564021
_publ_section_title
;
Structure prediction by ZEFSAII (Michael W. Deem and Ramdas Pophale) SiO2 
 PCOD9564021
Probable space group: P 4/M B M
;
_chemical_formula_sum "Si O2"
_cell_formula_units_Z 112
_cell_length_a 17.394672
_cell_length_b 17.394672
_cell_length_c 19.192723
_cell_angle_alpha 90.000000
_cell_angle_beta 90.000000
_cell_angle_gamma 90.000000
_cell_volume 5807.230753
_symmetry_space_group_name_H-M "P 4/M B M"
_symmetry_group_IT_number 127
_symmetry_cell_setting 'tetragonal'
loop_
_space_group_symop_operation_xyz
x,y,z
-y,x,z
-x,-y,z
y,-x,z
1/2+x,1/2-y,-z
1/2-x,1/2+y,-z
1/2+y,1/2+x,-z
1/2-y,1/2-x,-z
-x,-y,-z
y,-x,-z
x,y,-z
-y,x,-z
1/2-x,1/2+y,z
1/2+x,1/2-y,z
1/2-y,1/2-x,z
1/2+y,1/2+x,z
loop_
_atom_site_type_symbol
_atom_site_label
_atom_site_fract_x
_atom_site_fract_y
_atom_site_fract_z
Si Si1 0.374175 0.993378 0.357228
Si Si2 0.043463 0.671502 0.212962
Si Si3 0.186186 0.441104 0.078940
Si Si4 0.892111 0.939868 0.916621
Si Si5 0.162459 0.789844 0.715843
Si Si6 0.803498 0.177739 0.856731
Si Si7 0.892091 0.258881 0.578399
O O1 0.415752 0.915752 0.382008
O O2 0.439999 0.060002 0.358271
O O3 0.348430 0.986203 0.276787
O O4 0.304277 0.029817 0.400766
O O5 0.098117 0.598117 0.202581
O O6 0.098474 0.737493 0.244848
O O7 0.001515 0.688030 0.141120
O O8 0.105872 0.394129 0.080973
O O9 0.251296 0.378479 0.097460
O O10 0.198180 0.470275 0.000000
O O11 0.823941 0.887728 0.889396
O O12 0.972010 0.898936 0.893720
O O13 0.891022 0.940831 0.000000
O O14 0.237419 0.737419 0.704824
O O15 0.187107 0.849094 0.776007
O O16 0.128700 0.802230 0.638946
O O17 0.759339 0.259339 0.856533
O O18 0.895678 0.228970 0.500000
O O19 0.825171 0.325171 0.580363
#
# Coordination Sequence:
#
# PCOD9564021 Si02
#       7
#    16  16  16  16  16  16  16
#     4   8  13  21  35  58  90 127 161 191 231 284
#     4   9  17  30  47  66  90 124 168 211 245 290
#     4  10  21  33  44  63  91 124 164 209 257 304
#     4   9  19  35  54  76 101 129 163 210 266 312
#     4   8  16  30  46  66  91 121 160 201 243 294
#     4  10  20  34  51  71  99 131 165 209 255 305
#     4   8  13  22  38  62  91 120 155 200 240 279
#
# _framework density 19.286300000000001
#
# number of rings (size 3 to 8) (size 9 to 14) (size 15 to 20)
#    0.000    3.143    0.000    3.000    2.000    2.286 
#    0.000    2.857    0.000    5.143    0.000    4.000 
#    0.000    9.143    0.000    1.857    0.000    1.143 
#
# Total GULP energy -623546.385185 kJ/mol
# GULP energy per Si atom -5567.378439 kJ/mol
# Density = 1.924240 g / cm^3
# Si number density = 19.286300 Si / 1000 Ang^3
#
#
#
# Elastic Constant Matrix: (Units=GPa)
#
#
# Indices 1 2 3 4 5 6 
#
# 1 23.1990 11.8303 9.3852 0.0000 0.0000 0.0000
# 2 11.8303 23.1990 9.3852 0.0000 0.0000 0.0000
# 3 9.3852 9.3852 118.8236 0.0000 0.0000 0.0000
# 4 0.0000 0.0000 0.0000 17.3527 0.0000 0.0000
# 5 0.0000 0.0000 0.0000 0.0000 17.3527 0.0000
# 6 0.0000 0.0000 0.0000 0.0000 0.0000 13.8350
#
#
#
# Elastic Compliance Matrix: (Units=1/GPa)
#
#
# Indices 1 2 3 4 5 6 
#
# 1 0.058885 -0.029076 -0.002354 0.000000 0.000000 0.000000
# 2 -0.029076 0.058885 -0.002354 0.000000 0.000000 0.000000
# 3 -0.002354 -0.002354 0.008788 0.000000 0.000000 0.000000
# 4 0.000000 0.000000 0.000000 0.057628 0.000000 0.000000
# 5 0.000000 0.000000 0.000000 0.000000 0.057628 0.000000
# 6 0.000000 0.000000 0.000000 0.000000 0.000000 0.072281
#
#
# Mechanical properties :
#
#
# Convention : Reuss Voigt Hill
#
# Bulk Modulus (GPa) = 16.95255 25.15810 21.05532
# Shear Modulus (GPa) = 12.45870 18.68280 15.57075
#
# Velocity S-wave (km/s) = 2.54438 3.11578 2.84447
# Velocity P-wave (km/s) = 4.17623 5.10069 4.66143
#
# Compressibility (1/GPa) = 0.05898819
#
# Stress axis : x y z
#
# Youngs Moduli (GPa) = 16.98230 16.98230 113.79459
#
# Poissons Ratio (x) = 0.49377 0.26792
# Poissons Ratio (y) = 0.49377 0.26792
# Poissons Ratio (z) = 0.03998 0.03998
#
# Static dielectric constant tensor:
#      x y z
#    x 1.700580 0.000000 0.000000 
#    y 0.000000 1.700580 0.000000 
#    z 0.000000 0.000000 1.703360 
# 
# From -- ./inp_files/5348.got.cif
#   From: 2010.05.17/outbox.cif.g08.bks.cpg/sg127_3_cif.got.tgz:5348.got - 2010.05.20 12:03:00.
