data_PCOD9564745
_publ_section_title
;
Structure prediction by ZEFSAII (Michael W. Deem and Ramdas Pophale) SiO2 
 PCOD9564745
Probable space group: P 4/M N C
;
_chemical_formula_sum "Si O2"
_cell_formula_units_Z 72
_cell_length_a 19.581051
_cell_length_b 19.581051
_cell_length_c 10.455993
_cell_angle_alpha 90.000000
_cell_angle_beta 90.000000
_cell_angle_gamma 90.000000
_cell_volume 4009.011305
_symmetry_space_group_name_H-M "P 4/M N C"
_symmetry_group_IT_number 128
_symmetry_cell_setting 'tetragonal'
loop_
_space_group_symop_operation_xyz
x,y,z
-y,x,z
-x,-y,z
y,-x,z
1/2+x,1/2-y,1/2-z
1/2-x,1/2+y,1/2-z
1/2+y,1/2+x,1/2-z
1/2-y,1/2-x,1/2-z
-x,-y,-z
y,-x,-z
x,y,-z
-y,x,-z
1/2-x,1/2+y,1/2+z
1/2+x,1/2-y,1/2+z
1/2-y,1/2-x,1/2+z
1/2+y,1/2+x,1/2+z
loop_
_atom_site_type_symbol
_atom_site_label
_atom_site_fract_x
_atom_site_fract_y
_atom_site_fract_z
Si Si1 0.662085 0.077062 0.350844
Si Si2 0.432312 0.685219 0.144440
Si Si3 0.829614 0.919890 0.738950
Si Si4 0.065702 0.903564 0.000000
Si Si5 0.674244 0.913980 0.651321
O O1 0.612204 0.112204 0.250000
O O2 0.650235 0.097418 0.500000
O O3 0.740621 0.094062 0.312623
O O4 0.657585 0.994837 0.344713
O O5 0.375618 0.627654 0.150017
O O6 0.499426 0.661501 0.217366
O O7 0.456477 0.697565 0.000000
O O8 0.751029 0.905223 0.705979
O O9 0.860702 0.908052 0.878787
O O10 0.982405 0.908764 0.000000
O O11 0.625595 0.874406 0.750000
O O12 0.670212 0.893336 0.500000
#
# Coordination Sequence:
#
# PCOD9564745 Si02
#       5
#    16  16  16   8  16
#     4   9  20  40  60  85 115 146 192 240 290 351
#     4  10  20  36  58  82 113 155 195 240 287 345
#     4  11  21  38  57  82 121 156 197 241 291 346
#     4  11  22  38  56  88 126 159 201 251 293 343
#     4  10  23  41  62  89 118 151 194 247 298 356
#
# _framework density 17.959538999999999
#
# number of rings (size 3 to 8) (size 9 to 14) (size 15 to 20)
#    0.000    1.889    2.222    3.333    1.556    2.667 
#    8.000    3.333    0.000    0.000    0.000    0.000 
#    0.000    0.000    0.000    0.000    0.000    0.000 
#
# Total GULP energy -401220.020783 kJ/mol
# GULP energy per Si atom -5572.500289 kJ/mol
# Density = 1.791866 g / cm^3
# Si number density = 17.959539 Si / 1000 Ang^3
#
#
#
# Elastic Constant Matrix: (Units=GPa)
#
#
# Indices 1 2 3 4 5 6 
#
# 1 55.5725 51.2170 38.4091 0.0000 0.0000 0.0000
# 2 51.2170 55.5665 38.4081 0.0000 0.0000 0.0000
# 3 38.4091 38.4081 107.3631 0.0000 0.0000 0.0000
# 4 0.0000 0.0000 0.0000 27.4499 0.0000 0.0000
# 5 0.0000 0.0000 0.0000 0.0000 27.4503 0.0000
# 6 0.0000 0.0000 0.0000 0.0000 0.0000 3.9088
#
#
#
# Elastic Compliance Matrix: (Units=1/GPa)
#
#
# Indices 1 2 3 4 5 6 
#
# 1 0.121172 -0.108571 -0.004509 0.000000 0.000000 0.000000
# 2 -0.108571 0.121188 -0.004513 0.000000 0.000000 0.000000
# 3 -0.004509 -0.004513 0.012542 0.000000 0.000000 0.000000
# 4 0.000000 0.000000 0.000000 0.036430 0.000000 0.000000
# 5 0.000000 0.000000 0.000000 0.000000 0.036430 0.000000
# 6 0.000000 0.000000 0.000000 0.000000 0.000000 0.255831
#
#
# Mechanical properties :
#
#
# Convention : Reuss Voigt Hill
#
# Bulk Modulus (GPa) = 50.71822 52.73005 51.72414
# Shear Modulus (GPa) = 6.05803 17.79299 11.92551
#
# Velocity S-wave (km/s) = 1.83861 3.15100 2.57966
# Velocity P-wave (km/s) = 5.72790 6.53166 6.14294
#
# Compressibility (1/GPa) = 0.01971678
#
# Stress axis : x y z
#
# Youngs Moduli (GPa) = 8.25271 8.25165 79.73371
#
# Poissons Ratio (x) = 0.89589 0.35953
# Poissons Ratio (y) = 0.89600 0.35982
# Poissons Ratio (z) = 0.03721 0.03724
#
# Static dielectric constant tensor:
#      x y z
#    x 1.616800 0.000000 0.000000 
#    y 0.000000 1.616800 0.000000 
#    z 0.000000 0.000000 1.627540 
# 
# From -- ./inp_files/1146.got.cif
#   From: 2010.05.17/outbox.cif.g08.bks.cpg/sg128_1_cif.got.tgz:1146.got - 2010.05.20 12:07:25.
