data_PCOD9565579
_publ_section_title
;
Structure prediction by ZEFSAII (Michael W. Deem and Ramdas Pophale) SiO2 
 PCOD9565579
Probable space group: P 4/N C C
;
_chemical_formula_sum "Si O2"
_cell_formula_units_Z 96
_cell_length_a 15.358810
_cell_length_b 15.358810
_cell_length_c 24.591410
_cell_angle_alpha 90.000000
_cell_angle_beta 90.000000
_cell_angle_gamma 90.000000
_cell_volume 5800.942576
_symmetry_space_group_name_H-M "P 4/N C C"
_symmetry_group_IT_number 130
_symmetry_cell_setting 'tetragonal'
loop_
_space_group_symop_operation_xyz
x,y,z
1/2-y,x,z
1/2-x,1/2-y,z
y,1/2-x,z
1/2+x,-y,1/2-z
-x,1/2+y,1/2-z
1/2+y,1/2+x,1/2-z
-y,-x,1/2-z
-x,-y,-z
1/2+y,-x,-z
1/2+x,1/2+y,-z
-y,1/2+x,-z
1/2-x,y,1/2+z
x,1/2-y,1/2+z
1/2-y,1/2-x,1/2+z
y,x,1/2+z
loop_
_atom_site_type_symbol
_atom_site_label
_atom_site_fract_x
_atom_site_fract_y
_atom_site_fract_z
Si Si1 0.334541 0.369301 0.772596
Si Si2 0.919984 0.171845 0.452743
Si Si3 0.650277 0.259653 0.129398
Si Si4 0.429052 0.460181 0.873672
Si Si5 0.374069 0.912899 0.937299
Si Si6 0.879315 0.470775 0.800397
O O1 0.229901 0.366790 0.770512
O O2 0.376667 0.407637 0.827705
O O3 0.361238 0.434225 0.723974
O O4 0.829019 0.154909 0.420511
O O5 0.924138 0.120200 0.509213
O O6 0.924981 0.275315 0.457909
O O7 0.996968 0.139368 0.414481
O O8 0.750000 0.250000 0.150974
O O9 0.624566 0.166168 0.105840
O O10 0.580805 0.299576 0.171444
O O11 0.500962 0.407859 0.907583
O O12 0.474305 0.541503 0.843001
O O13 0.912217 0.412217 0.750000
#
# Coordination Sequence:
#
# PCOD9565579 Si02
#       6
#    16  16  16  16  16  16
#     4  10  21  38  58  75 102 145 184 226 276 330
#     4  10  19  34  52  78 112 140 175 216 265 332
#     4   9  19  32  53  81 110 143 176 217 273 329
#     4  10  21  35  53  81 107 136 181 228 269 315
#     4  11  19  32  57  79 108 146 176 218 271 331
#     4   9  20  37  53  77 112 138 179 232 272 327
#
# _framework density 16.549033999999999
#
# number of rings (size 3 to 8) (size 9 to 14) (size 15 to 20)
#    0.000    2.167    1.667    1.500    2.333    1.667 
#    0.000    0.000    0.000    0.000    0.000    0.000 
#    0.000    0.000    0.000    0.000    0.000    0.000 
#
# Total GULP energy -535071.310322 kJ/mol
# GULP energy per Si atom -5573.659483 kJ/mol
# Density = 1.651137 g / cm^3
# Si number density = 16.549034 Si / 1000 Ang^3
#
#
#
# Elastic Constant Matrix: (Units=GPa)
#
#
# Indices 1 2 3 4 5 6 
#
# 1 60.2205 27.9617 27.9253 0.0000 0.0000 0.0000
# 2 27.9617 60.2205 27.9253 0.0000 0.0000 0.0000
# 3 27.9253 27.9253 76.3531 0.0000 0.0000 0.0000
# 4 0.0000 0.0000 0.0000 26.0523 0.0000 0.0000
# 5 0.0000 0.0000 0.0000 0.0000 26.0523 0.0000
# 6 0.0000 0.0000 0.0000 0.0000 0.0000 25.3095
#
#
#
# Elastic Compliance Matrix: (Units=1/GPa)
#
#
# Indices 1 2 3 4 5 6 
#
# 1 0.022879 -0.008120 -0.005398 0.000000 0.000000 0.000000
# 2 -0.008120 0.022879 -0.005398 0.000000 0.000000 0.000000
# 3 -0.005398 -0.005398 0.017046 0.000000 0.000000 0.000000
# 4 0.000000 0.000000 0.000000 0.038384 0.000000 0.000000
# 5 0.000000 0.000000 0.000000 0.000000 0.038384 0.000000
# 6 0.000000 0.000000 0.000000 0.000000 0.000000 0.039511
#
#
# Mechanical properties :
#
#
# Convention : Reuss Voigt Hill
#
# Bulk Modulus (GPa) = 40.04532 40.49099 40.26815
# Shear Modulus (GPa) = 22.19862 23.01494 22.60678
#
# Velocity S-wave (km/s) = 3.66647 3.73327 3.70002
# Velocity P-wave (km/s) = 6.49419 6.56532 6.52985
#
# Compressibility (1/GPa) = 0.02497171
#
# Stress axis : x y z
#
# Youngs Moduli (GPa) = 43.70798 43.70798 58.66649
#
# Poissons Ratio (x) = 0.35492 0.31668
# Poissons Ratio (y) = 0.35492 0.31668
# Poissons Ratio (z) = 0.23593 0.23593
#
# Static dielectric constant tensor:
#      x y z
#    x 1.543800 0.000000 0.000000 
#    y 0.000000 1.543800 0.000000 
#    z 0.000000 0.000000 1.547970 
# 
# From -- ./inp_files/3758.got.cif
#   From: 2010.05.17/outbox.cif.g08.bks.cpg/sg130_2_cif.got.tgz:3758.got - 2010.05.20 12:17:35.
