data_PCOD9565597
_publ_section_title
;
Structure prediction by ZEFSAII (Michael W. Deem and Ramdas Pophale) SiO2 
 PCOD9565597
Probable space group: P 4/N C C
;
_chemical_formula_sum "Si O2"
_cell_formula_units_Z 112
_cell_length_a 14.011784
_cell_length_b 14.011784
_cell_length_c 26.359346
_cell_angle_alpha 90.000000
_cell_angle_beta 90.000000
_cell_angle_gamma 90.000000
_cell_volume 5175.132795
_symmetry_space_group_name_H-M "P 4/N C C"
_symmetry_group_IT_number 130
_symmetry_cell_setting 'tetragonal'
loop_
_space_group_symop_operation_xyz
x,y,z
1/2-y,x,z
1/2-x,1/2-y,z
y,1/2-x,z
1/2+x,-y,1/2-z
-x,1/2+y,1/2-z
1/2+y,1/2+x,1/2-z
-y,-x,1/2-z
-x,-y,-z
1/2+y,-x,-z
1/2+x,1/2+y,-z
-y,1/2+x,-z
1/2-x,y,1/2+z
x,1/2-y,1/2+z
1/2-y,1/2-x,1/2+z
y,x,1/2+z
loop_
_atom_site_type_symbol
_atom_site_label
_atom_site_fract_x
_atom_site_fract_y
_atom_site_fract_z
Si Si1 0.486558 0.810789 0.308027
Si Si2 0.542509 0.308878 0.545391
Si Si3 0.112871 0.030990 0.145733
Si Si4 0.928544 0.561418 0.618207
Si Si5 0.534994 0.195901 0.447892
Si Si6 0.360025 0.863907 0.394769
Si Si7 0.809256 0.898775 0.211898
O O1 0.568372 0.868307 0.338956
O O2 0.500483 0.699442 0.318653
O O3 0.389000 0.842662 0.336157
O O4 0.515210 0.833087 0.250346
O O5 0.471346 0.347383 0.588363
O O6 0.504455 0.262620 0.494130
O O7 0.611301 0.397069 0.532237
O O8 0.604494 0.226311 0.573330
O O9 0.026773 0.954246 0.149469
O O10 0.918219 0.459718 0.590877
O O11 0.839088 0.572324 0.655210
O O12 0.947344 0.648240 0.581118
O O13 0.604074 0.254121 0.409331
O O14 0.699059 0.869272 0.219784
#
# Coordination Sequence:
#
# PCOD9565597 Si02
#       7
#    16  16  16  16  16  16  16
#     4  10  19  38  59  89 121 153 207 266 319 383
#     4  10  20  35  60  89 121 165 212 256 316 386
#     4   9  20  36  56  88 121 155 203 263 315 372
#     4  10  23  39  57  89 126 163 205 274 320 376
#     4  11  20  38  61  88 128 167 216 258 318 393
#     4  10  21  35  58  89 121 160 208 266 312 381
#     4  11  22  39  67  91 114 163 215 257 325 401
#
# _framework density 21.641957000000001
#
# number of rings (size 3 to 8) (size 9 to 14) (size 15 to 20)
#    0.000    1.857    2.857    1.286    0.000    3.143 
#    5.143    0.000    0.000    0.000    0.000    2.000 
#    0.000    0.000    0.000    0.000    0.000    0.000 
#
# Total GULP energy -624809.664589 kJ/mol
# GULP energy per Si atom -5578.657720 kJ/mol
# Density = 2.159270 g / cm^3
# Si number density = 21.641957 Si / 1000 Ang^3
#
#
#
# Elastic Constant Matrix: (Units=GPa)
#
#
# Indices 1 2 3 4 5 6 
#
# 1 18.6676 11.9564 19.5736 0.0000 0.0000 0.0000
# 2 11.9564 18.6676 19.5736 0.0000 0.0000 0.0000
# 3 19.5736 19.5736 89.9704 0.0000 0.0000 0.0000
# 4 0.0000 0.0000 0.0000 33.4882 0.0000 0.0000
# 5 0.0000 0.0000 0.0000 0.0000 33.4882 0.0000
# 6 0.0000 0.0000 0.0000 0.0000 0.0000 19.6752
#
#
#
# Elastic Compliance Matrix: (Units=1/GPa)
#
#
# Indices 1 2 3 4 5 6 
#
# 1 0.097119 -0.051885 -0.009841 0.000000 0.000000 0.000000
# 2 -0.051885 0.097119 -0.009841 0.000000 0.000000 0.000000
# 3 -0.009841 -0.009841 0.015397 0.000000 0.000000 0.000000
# 4 0.000000 0.000000 0.000000 0.029861 0.000000 0.000000
# 5 0.000000 0.000000 0.000000 0.000000 0.029861 0.000000
# 6 0.000000 0.000000 0.000000 0.000000 0.000000 0.050825
#
#
# Mechanical properties :
#
#
# Convention : Reuss Voigt Hill
#
# Bulk Modulus (GPa) = 15.03736 25.50139 20.26937
# Shear Modulus (GPa) = 10.29899 22.41044 16.35472
#
# Velocity S-wave (km/s) = 2.18384 3.22142 2.75197
# Velocity P-wave (km/s) = 3.64996 5.06415 4.41406
#
# Compressibility (1/GPa) = 0.06650105
#
# Stress axis : x y z
#
# Youngs Moduli (GPa) = 10.29661 10.29661 64.94911
#
# Poissons Ratio (x) = 0.53424 0.63916
# Poissons Ratio (y) = 0.53424 0.63916
# Poissons Ratio (z) = 0.10133 0.10133
#
# Static dielectric constant tensor:
#      x y z
#    x 1.794860 0.000000 0.000000 
#    y 0.000000 1.794860 0.000000 
#    z 0.000000 0.000000 1.844180 
# 
# From -- ./inp_files/4310.got.cif
#   From: 2010.05.17/outbox.cif.g08.bks.cpg/sg130_3_cif.got.tgz:4310.got - 2010.05.20 12:17:35.
