data_PCOD9565128
_publ_section_title
;
Structure prediction by ZEFSAII (Michael W. Deem and Ramdas Pophale) SiO2 
 PCOD9565128
Probable space group: P 4/N M M
;
_chemical_formula_sum "Si O2"
_cell_formula_units_Z 96
_cell_length_a 27.144760
_cell_length_b 27.144760
_cell_length_c 7.620845
_cell_angle_alpha 90.000000
_cell_angle_beta 90.000000
_cell_angle_gamma 90.000000
_cell_volume 5615.328153
_symmetry_space_group_name_H-M "P 4/N M M"
_symmetry_group_IT_number 129
_symmetry_cell_setting 'tetragonal'
loop_
_space_group_symop_operation_xyz
x,y,z
1/2-y,x,z
1/2-x,1/2-y,z
y,1/2-x,z
1/2+x,-y,-z
-x,1/2+y,-z
1/2+y,1/2+x,-z
-y,-x,-z
-x,-y,-z
1/2+y,-x,-z
1/2+x,1/2+y,-z
-y,1/2+x,-z
1/2-x,y,z
x,1/2-y,z
1/2-y,1/2-x,z
y,x,z
loop_
_atom_site_type_symbol
_atom_site_label
_atom_site_fract_x
_atom_site_fract_y
_atom_site_fract_z
Si Si1 0.934896 0.855813 0.751246
Si Si2 0.878712 0.191879 0.606312
Si Si3 0.807237 0.886399 0.427307
Si Si4 0.309088 0.458570 0.886687
Si Si5 0.691703 0.462303 0.676184
Si Si6 0.309163 0.570664 0.944382
O O1 0.910082 0.910082 0.738205
O O2 0.902804 0.821839 0.622282
O O3 0.990926 0.844432 0.689310
O O4 0.933476 0.836814 0.950793
O O5 0.838406 0.161595 0.500000
O O6 0.866023 0.250000 0.608767
O O7 0.929769 0.187140 0.497212
O O8 0.889302 0.173101 0.804047
O O9 0.750000 0.875391 0.414916
O O10 0.840336 0.840336 0.375982
O O11 0.818667 0.931074 0.294631
O O12 0.250000 0.457091 0.918894
O O13 0.324260 0.515748 0.884190
O O14 0.750000 0.478444 0.688974
O O15 0.681118 0.428678 0.847963
O O16 0.250000 0.572623 0.927359
#
# Coordination Sequence:
#
# PCOD9565128 Si02
#       6
#    16  16  16  16  16  16
#     4  10  18  28  46  71  94 115 148 198 250 291
#     4  10  20  33  51  75 101 129 160 192 228 274
#     4  10  19  28  39  57  84 119 156 194 238 288
#     4   9  16  28  46  66  89 117 152 197 244 286
#     4   9  17  31  50  70  94 125 161 200 239 282
#     4   8  15  28  47  70  93 118 150 187 227 272
#
# _framework density 17.096062
#
# number of rings (size 3 to 8) (size 9 to 14) (size 15 to 20)
#    0.000    2.667    0.000    4.000    0.000    3.667 
#    0.000    0.000    0.000    0.500    0.000   11.667 
#    0.000    0.000    0.000    0.000    0.000    0.000 
#
# Total GULP energy -534550.037837 kJ/mol
# GULP energy per Si atom -5568.229561 kJ/mol
# Density = 1.705715 g / cm^3
# Si number density = 17.096062 Si / 1000 Ang^3
#
#
#
# Elastic Constant Matrix: (Units=GPa)
#
#
# Indices 1 2 3 4 5 6 
#
# 1 33.5810 18.6328 -1.6244 0.0000 0.0000 0.0000
# 2 18.6328 33.5835 -1.6218 0.0000 0.0000 0.0000
# 3 -1.6244 -1.6218 41.4892 0.0000 0.0000 0.0000
# 4 0.0000 0.0000 0.0000 20.4615 0.0000 0.0000
# 5 0.0000 0.0000 0.0000 0.0000 20.4614 0.0000
# 6 0.0000 0.0000 0.0000 0.0000 0.0000 25.6669
#
#
#
# Elastic Compliance Matrix: (Units=1/GPa)
#
#
# Indices 1 2 3 4 5 6 
#
# 1 0.043047 -0.023847 0.000753 0.000000 0.000000 0.000000
# 2 -0.023847 0.043044 0.000749 0.000000 0.000000 0.000000
# 3 0.000753 0.000749 0.024161 0.000000 0.000000 0.000000
# 4 0.000000 0.000000 0.000000 0.048872 0.000000 0.000000
# 5 0.000000 0.000000 0.000000 0.000000 0.048872 0.000000
# 6 0.000000 0.000000 0.000000 0.000000 0.000000 0.038961
#
#
# Mechanical properties :
#
#
# Convention : Reuss Voigt Hill
#
# Bulk Modulus (GPa) = 15.25271 15.49188 15.37229
# Shear Modulus (GPa) = 15.94892 19.53578 17.74235
#
# Velocity S-wave (km/s) = 3.05766 3.38406 3.22499
# Velocity P-wave (km/s) = 4.62675 4.93462 4.78316
#
# Compressibility (1/GPa) = 0.06556214
#
# Stress axis : x y z
#
# Youngs Moduli (GPa) = 23.23048 23.23231 41.38834
#
# Poissons Ratio (x) = 0.55402 -0.03118
# Poissons Ratio (y) = 0.55398 -0.03099
# Poissons Ratio (z) = -0.01750 -0.01740
#
# Static dielectric constant tensor:
#      x y z
#    x 1.573690 0.000000 0.000000 
#    y 0.000000 1.573690 0.000000 
#    z 0.000000 0.000000 1.606020 
# 
# From -- ./inp_files/2623.got.cif
#   From: 2010.05.17/outbox.cif.g08.bks.cpg/sg129_2_cif.got.tgz:2623.got - 2010.05.20 12:12:06.
