data_PCOD9565934
_publ_section_title
;
Structure prediction by ZEFSAII (Michael W. Deem and Ramdas Pophale) SiO2 
 PCOD9565934
Probable space group: P 4/N C C
;
_chemical_formula_sum "Si O2"
_cell_formula_units_Z 52
_cell_length_a 10.045116
_cell_length_b 10.045116
_cell_length_c 19.216569
_cell_angle_alpha 90.000000
_cell_angle_beta 90.000000
_cell_angle_gamma 90.000000
_cell_volume 1939.035509
_symmetry_space_group_name_H-M "P 4/N C C"
_symmetry_group_IT_number 130
_symmetry_cell_setting 'tetragonal'
loop_
_space_group_symop_operation_xyz
x,y,z
1/2-y,x,z
1/2-x,1/2-y,z
y,1/2-x,z
1/2+x,-y,1/2-z
-x,1/2+y,1/2-z
1/2+y,1/2+x,1/2-z
-y,-x,1/2-z
-x,-y,-z
1/2+y,-x,-z
1/2+x,1/2+y,-z
-y,1/2+x,-z
1/2-x,y,1/2+z
x,1/2-y,1/2+z
1/2-y,1/2-x,1/2+z
y,x,1/2+z
loop_
_atom_site_type_symbol
_atom_site_label
_atom_site_fract_x
_atom_site_fract_y
_atom_site_fract_z
Si Si1 0.336738 0.047824 0.041708
Si Si2 0.968088 0.747230 0.747738
Si Si3 0.272367 0.910103 0.405847
Si Si4 0.750000 0.250000 0.250000
O O1 0.415283 0.183410 0.058669
O O2 0.311186 0.991890 0.963290
O O3 0.413717 0.929302 0.078696
O O4 0.879384 0.876381 0.761452
O O5 0.018675 0.746059 0.667893
O O6 0.107348 0.749673 0.787952
O O7 0.250000 0.750000 0.413728
#
# Coordination Sequence:
#
# PCOD9565934 Si02
#       4
#    16  16  16   4
#     4  11  23  37  58  90 131 178 224 269 317 379
#     4  11  26  46  71 101 132 172 219 269 336 407
#     4  12  22  38  61  90 128 174 219 265 317 385
#     4  12  24  48  76 102 128 164 212 288 340 394
#
# _framework density 26.817456
#
# number of rings (size 3 to 8) (size 9 to 14) (size 15 to 20)
#    0.000    0.615    4.615    3.692    4.308    2.462 
#    0.000    0.000    0.000    3.692    0.000    0.000 
#    0.000    0.000    0.000    0.000    0.000    0.000 
#
# Total GULP energy -291081.324173 kJ/mol
# GULP energy per Si atom -5597.717773 kJ/mol
# Density = 2.675642 g / cm^3
# Si number density = 26.817456 Si / 1000 Ang^3
#
#
#
# Elastic Constant Matrix: (Units=GPa)
#
#
# Indices 1 2 3 4 5 6 
#
# 1 202.4729 93.1767 1.2739 0.0000 0.0000 0.0000
# 2 93.1767 202.4729 1.2739 0.0000 0.0000 0.0000
# 3 1.2739 1.2739 89.2497 0.0000 0.0000 0.0000
# 4 0.0000 0.0000 0.0000 19.6226 0.0000 0.0000
# 5 0.0000 0.0000 0.0000 0.0000 19.6226 0.0000
# 6 0.0000 0.0000 0.0000 0.0000 0.0000 58.8108
#
#
#
# Elastic Compliance Matrix: (Units=1/GPa)
#
#
# Indices 1 2 3 4 5 6 
#
# 1 0.006266 -0.002883 -0.000048 0.000000 0.000000 0.000000
# 2 -0.002883 0.006266 -0.000048 0.000000 0.000000 0.000000
# 3 -0.000048 -0.000048 0.011206 0.000000 0.000000 0.000000
# 4 0.000000 0.000000 0.000000 0.050962 0.000000 0.000000
# 5 0.000000 0.000000 0.000000 0.000000 0.050962 0.000000
# 6 0.000000 0.000000 0.000000 0.000000 0.000000 0.017004
#
#
# Mechanical properties :
#
#
# Convention : Reuss Voigt Hill
#
# Bulk Modulus (GPa) = 56.24818 76.18273 66.21545
# Shear Modulus (GPa) = 32.35173 46.17593 39.26383
#
# Velocity S-wave (km/s) = 3.47705 4.15403 3.83053
# Velocity P-wave (km/s) = 6.09425 7.17479 6.65648
#
# Compressibility (1/GPa) = 0.01777835
#
# Stress axis : x y z
#
# Youngs Moduli (GPa) = 159.58834 159.58834 89.23877
#
# Poissons Ratio (x) = 0.46014 0.00431
# Poissons Ratio (y) = 0.46014 0.00431
# Poissons Ratio (z) = 0.00771 0.00771
#
# Static dielectric constant tensor:
#      x y z
#    x 2.082180 0.000000 0.000000 
#    y 0.000000 2.082180 0.000000 
#    z 0.000000 0.000000 2.171940 
# 
# From -- ./inp_files/3441.got.cif
#   From: 2010.05.17/outbox.cif.g08.bks.cpg/sg130_2_cif.got.tgz:3441.got - 2010.05.20 12:17:35.
