data_PCOD9565336
_publ_section_title
;
Structure prediction by ZEFSAII (Michael W. Deem and Ramdas Pophale) SiO2 
 PCOD9565336
Probable space group: P 4/N M M
;
_chemical_formula_sum "Si O2"
_cell_formula_units_Z 80
_cell_length_a 13.768943
_cell_length_b 13.768943
_cell_length_c 25.819515
_cell_angle_alpha 90.000000
_cell_angle_beta 90.000000
_cell_angle_gamma 90.000000
_cell_volume 4894.961544
_symmetry_space_group_name_H-M "P 4/N M M"
_symmetry_group_IT_number 129
_symmetry_cell_setting 'tetragonal'
loop_
_space_group_symop_operation_xyz
x,y,z
1/2-y,x,z
1/2-x,1/2-y,z
y,1/2-x,z
1/2+x,-y,-z
-x,1/2+y,-z
1/2+y,1/2+x,-z
-y,-x,-z
-x,-y,-z
1/2+y,-x,-z
1/2+x,1/2+y,-z
-y,1/2+x,-z
1/2-x,y,z
x,1/2-y,z
1/2-y,1/2-x,z
y,x,z
loop_
_atom_site_type_symbol
_atom_site_label
_atom_site_fract_x
_atom_site_fract_y
_atom_site_fract_z
Si Si1 0.523921 0.135948 0.865943
Si Si2 0.522681 0.364763 0.340375
Si Si3 0.631831 0.361618 0.557002
Si Si4 0.522989 0.362904 0.744071
Si Si5 0.473479 0.634744 0.953378
O O1 0.514577 0.250000 0.878644
O O2 0.547668 0.127531 0.804957
O O3 0.603688 0.083339 0.901254
O O4 0.423738 0.076263 0.874882
O O5 0.508537 0.250000 0.341194
O O6 0.423299 0.423299 0.334388
O O7 0.573763 0.395821 0.394187
O O8 0.592208 0.396091 0.293244
O O9 0.601856 0.398145 0.500000
O O10 0.750000 0.359493 0.555438
O O11 0.599339 0.250000 0.564164
O O12 0.507940 0.250000 0.732858
O O13 0.426054 0.426054 0.735131
O O14 0.485942 0.750000 0.957502
O O15 0.574553 0.574553 0.954521
O O16 0.408283 0.591718 0.000000
#
# Coordination Sequence:
#
# PCOD9565336 Si02
#       5
#    16  16  16  16  16
#     4   9  18  32  50  74 102 129 158 192 231 279
#     4  10  20  32  46  65  90 122 160 199 236 274
#     4   8  14  26  45  68  91 113 141 182 231 281
#     4   9  18  32  50  73  99 125 154 190 234 284
#     4  10  21  36  53  74 100 129 163 202 241 283
#
# _framework density 16.343336999999998
#
# number of rings (size 3 to 8) (size 9 to 14) (size 15 to 20)
#    0.000    2.800    0.000    1.800    0.000    4.600 
#    0.000    4.000    0.000    3.600    0.000    5.600 
#    0.000    4.800    0.000    0.000    0.000    0.000 
#
# Total GULP energy -445769.857313 kJ/mol
# GULP energy per Si atom -5572.123216 kJ/mol
# Density = 1.630614 g / cm^3
# Si number density = 16.343337 Si / 1000 Ang^3
#
#
#
# Elastic Constant Matrix: (Units=GPa)
#
#
# Indices 1 2 3 4 5 6 
#
# 1 108.1236 47.7276 51.3848 0.0000 0.0000 0.0000
# 2 47.7276 108.1235 51.3846 0.0000 0.0000 0.0000
# 3 51.3848 51.3846 69.0753 0.0000 0.0000 0.0000
# 4 0.0000 0.0000 0.0000 22.3577 0.0000 0.0000
# 5 0.0000 0.0000 0.0000 0.0000 22.3577 0.0000
# 6 0.0000 0.0000 0.0000 0.0000 0.0000 5.5632
#
#
#
# Elastic Compliance Matrix: (Units=1/GPa)
#
#
# Indices 1 2 3 4 5 6 
#
# 1 0.014576 -0.001982 -0.009369 0.000000 0.000000 0.000000
# 2 -0.001982 0.014576 -0.009369 0.000000 0.000000 0.000000
# 3 -0.009369 -0.009369 0.028416 0.000000 0.000000 0.000000
# 4 0.000000 0.000000 0.000000 0.044727 0.000000 0.000000
# 5 0.000000 0.000000 0.000000 0.000000 0.044727 0.000000
# 6 0.000000 0.000000 0.000000 0.000000 0.000000 0.179752
#
#
# Mechanical properties :
#
#
# Convention : Reuss Voigt Hill
#
# Bulk Modulus (GPa) = 61.99986 65.14626 63.57306
# Shear Modulus (GPa) = 13.38371 19.04410 16.21390
#
# Velocity S-wave (km/s) = 2.86476 3.41728 3.15315
# Velocity P-wave (km/s) = 6.99719 7.45104 7.22768
#
# Compressibility (1/GPa) = 0.01612907
#
# Stress axis : x y z
#
# Youngs Moduli (GPa) = 68.60681 68.60698 35.19190
#
# Poissons Ratio (x) = 0.13595 0.32971
# Poissons Ratio (y) = 0.13595 0.32970
# Poissons Ratio (z) = 0.64276 0.64276
#
# Static dielectric constant tensor:
#      x y z
#    x 1.525040 0.000000 0.000000 
#    y 0.000000 1.525040 0.000000 
#    z 0.000000 0.000000 1.572140 
# 
# From -- ./inp_files/6329.got.cif
#   From: 2010.05.17/outbox.cif.g08.bks.cpg/sg129_4_cif.got.tgz:6329.got - 2010.05.20 12:12:06.
