data_PCOD9565055
_publ_section_title
;
Structure prediction by ZEFSAII (Michael W. Deem and Ramdas Pophale) SiO2 
 PCOD9565055
Probable space group: P 4/M N C
;
_chemical_formula_sum "Si O2"
_cell_formula_units_Z 88
_cell_length_a 11.124891
_cell_length_b 11.124891
_cell_length_c 32.489459
_cell_angle_alpha 90.000000
_cell_angle_beta 90.000000
_cell_angle_gamma 90.000000
_cell_volume 4020.999404
_symmetry_space_group_name_H-M "P 4/M N C"
_symmetry_group_IT_number 128
_symmetry_cell_setting 'tetragonal'
loop_
_space_group_symop_operation_xyz
x,y,z
-y,x,z
-x,-y,z
y,-x,z
1/2+x,1/2-y,1/2-z
1/2-x,1/2+y,1/2-z
1/2+y,1/2+x,1/2-z
1/2-y,1/2-x,1/2-z
-x,-y,-z
y,-x,-z
x,y,-z
-y,x,-z
1/2-x,1/2+y,1/2+z
1/2+x,1/2-y,1/2+z
1/2-y,1/2-x,1/2+z
1/2+y,1/2+x,1/2+z
loop_
_atom_site_type_symbol
_atom_site_label
_atom_site_fract_x
_atom_site_fract_y
_atom_site_fract_z
Si Si1 0.010284 0.203680 0.500000
Si Si2 0.841708 0.874801 0.817108
Si Si3 0.698565 0.546718 0.546884
Si Si4 0.000000 0.500000 0.810996
Si Si5 0.484517 0.701709 0.088342
Si Si6 0.354224 0.145777 0.250000
Si Si7 0.169236 0.377084 0.370569
O O1 0.014379 0.266232 0.456289
O O2 0.891264 0.120347 0.500000
O O3 0.770322 0.855652 0.774801
O O4 0.797863 0.777945 0.850986
O O5 0.982673 0.843915 0.821506
O O6 0.586087 0.639614 0.549926
O O7 0.748587 0.559602 0.500000
O O8 0.783387 0.571079 0.585949
O O9 0.885925 0.460377 0.782776
O O10 0.972768 0.614490 0.838957
O O11 0.376182 0.604509 0.090451
O O12 0.449069 0.796878 0.121788
#
# Coordination Sequence:
#
# PCOD9565055 Si02
#       7
#     8  16  16   8  16   8  16
#     4   7  12  30  54  77 114 167 224 273 314 366
#     4  11  25  45  73 103 126 169 228 274 328 401
#     4   9  20  40  65  95 134 180 228 277 328 385
#     4  11  28  48  67 100 140 182 207 280 376 417
#     4   9  20  36  58  89 128 177 230 274 322 385
#     4  11  26  50  72  91 138 174 220 277 358 416
#     4  12  24  39  69  99 142 174 221 277 341 411
#
# _framework density 21.885104999999999
#
# number of rings (size 3 to 8) (size 9 to 14) (size 15 to 20)
#    0.000    1.909    1.818    2.727    6.364    1.455 
#    0.000    0.455    0.000    0.000    0.000    0.000 
#    0.000    0.000    0.000    0.000    0.000    0.000 
#
# Total GULP energy -489955.130999 kJ/mol
# GULP energy per Si atom -5567.671943 kJ/mol
# Density = 2.183529 g / cm^3
# Si number density = 21.885105 Si / 1000 Ang^3
#
#
#
# Elastic Constant Matrix: (Units=GPa)
#
#
# Indices 1 2 3 4 5 6 
#
# 1 41.5401 -6.7981 19.7077 0.0000 0.0000 0.0000
# 2 -6.7981 41.5401 19.7079 0.0000 0.0000 0.0000
# 3 19.7077 19.7079 103.7898 0.0000 0.0000 0.0000
# 4 0.0000 0.0000 0.0000 35.4239 0.0000 0.0000
# 5 0.0000 0.0000 0.0000 0.0000 35.4237 0.0000
# 6 0.0000 0.0000 0.0000 0.0000 0.0000 9.6367
#
#
#
# Elastic Compliance Matrix: (Units=1/GPa)
#
#
# Indices 1 2 3 4 5 6 
#
# 1 0.028687 0.008000 -0.006966 0.000000 0.000000 0.000000
# 2 0.008000 0.028687 -0.006966 0.000000 0.000000 0.000000
# 3 -0.006966 -0.006966 0.012280 0.000000 0.000000 0.000000
# 4 0.000000 0.000000 0.000000 0.028230 0.000000 0.000000
# 5 0.000000 0.000000 0.000000 0.000000 0.028230 0.000000
# 6 0.000000 0.000000 0.000000 0.000000 0.000000 0.103770
#
#
# Mechanical properties :
#
#
# Convention : Reuss Voigt Hill
#
# Bulk Modulus (GPa) = 17.30418 28.01164 22.65791
# Shear Modulus (GPa) = 19.15615 26.38036 22.76826
#
# Velocity S-wave (km/s) = 2.96177 3.47566 3.22895
# Velocity P-wave (km/s) = 4.42945 5.37904 4.92718
#
# Compressibility (1/GPa) = 0.05778950
#
# Stress axis : x y z
#
# Youngs Moduli (GPa) = 34.85874 34.85868 81.43090
#
# Poissons Ratio (x) = -0.27886 0.56726
# Poissons Ratio (y) = -0.27886 0.56726
# Poissons Ratio (z) = 0.24283 0.24283
#
# Static dielectric constant tensor:
#      x y z
#    x 1.829090 0.000000 0.000000 
#    y 0.000000 1.829090 0.000000 
#    z 0.000000 0.000000 1.770420 
# 
# From -- ./inp_files/7301.got.cif
#   From: 2010.05.17/outbox.cif.g08.bks.cpg/sg128_4_cif.got.tgz:7301.got - 2010.05.20 12:07:25.
