data_PCOD9565400
_publ_section_title
;
Structure prediction by ZEFSAII (Michael W. Deem and Ramdas Pophale) SiO2 
 PCOD9565400
Probable space group: P 4/N M M
;
_chemical_formula_sum "Si O2"
_cell_formula_units_Z 72
_cell_length_a 18.220440
_cell_length_b 18.220440
_cell_length_c 11.355573
_cell_angle_alpha 90.000000
_cell_angle_beta 90.000000
_cell_angle_gamma 90.000000
_cell_volume 3769.873473
_symmetry_space_group_name_H-M "P 4/N M M"
_symmetry_group_IT_number 129
_symmetry_cell_setting 'tetragonal'
loop_
_space_group_symop_operation_xyz
x,y,z
1/2-y,x,z
1/2-x,1/2-y,z
y,1/2-x,z
1/2+x,-y,-z
-x,1/2+y,-z
1/2+y,1/2+x,-z
-y,-x,-z
-x,-y,-z
1/2+y,-x,-z
1/2+x,1/2+y,-z
-y,1/2+x,-z
1/2-x,y,z
x,1/2-y,z
1/2-y,1/2-x,z
y,x,z
loop_
_atom_site_type_symbol
_atom_site_label
_atom_site_fract_x
_atom_site_fract_y
_atom_site_fract_z
Si Si1 0.610901 0.389099 0.000000
Si Si2 0.337667 0.667450 0.242439
Si Si3 0.944032 0.058944 0.359171
Si Si4 0.830553 0.559024 0.259697
Si Si5 0.451401 0.165964 0.024390
O O1 0.628810 0.338125 0.888890
O O2 0.625122 0.471570 0.955591
O O3 0.250000 0.663428 0.234851
O O4 0.356538 0.750000 0.289859
O O5 0.367717 0.595617 0.311173
O O6 0.940756 0.059245 0.500000
O O7 0.887145 0.999428 0.308480
O O8 0.024930 0.024930 0.326413
O O9 0.750000 0.545073 0.305272
O O10 0.861176 0.638825 0.291513
O O11 0.830281 0.554308 0.118074
O O12 0.452223 0.250000 0.068176
O O13 0.383450 0.116551 0.066818
#
# Coordination Sequence:
#
# PCOD9565400 Si02
#       5
#     8  16  16  16  16
#     4  12  21  35  54  80 116 149 189 230 276 336
#     4  11  23  37  55  81 113 148 185 230 282 333
#     4  10  21  37  56  78 105 140 182 227 274 326
#     4   9  17  31  51  76 105 136 171 213 264 318
#     4  10  20  33  53  79 107 143 182 224 273 323
#
# _framework density 19.098783000000001
#
# number of rings (size 3 to 8) (size 9 to 14) (size 15 to 20)
#    0.000    1.778    2.222    3.000    0.000    4.000 
#    0.000    3.333    0.000    0.000    0.000    0.000 
#    0.000    0.444    0.000    0.444    0.000    0.444 
#
# Total GULP energy -401094.625596 kJ/mol
# GULP energy per Si atom -5570.758689 kJ/mol
# Density = 1.905531 g / cm^3
# Si number density = 19.098783 Si / 1000 Ang^3
#
#
#
# Elastic Constant Matrix: (Units=GPa)
#
#
# Indices 1 2 3 4 5 6 
#
# 1 123.2119 17.0113 -9.2182 0.0000 0.0000 0.0000
# 2 17.0113 123.2106 -9.2192 0.0000 0.0000 0.0000
# 3 -9.2182 -9.2192 25.7290 0.0000 0.0000 0.0000
# 4 0.0000 0.0000 0.0000 -32.3189 0.0000 0.0000
# 5 0.0000 0.0000 0.0000 0.0000 -32.3194 0.0000
# 6 0.0000 0.0000 0.0000 0.0000 0.0000 30.6608
#
#
#
# Elastic Compliance Matrix: (Units=1/GPa)
#
#
# Indices 1 2 3 4 5 6 
#
# 1 0.008450 -0.000966 0.002681 0.000000 0.000000 0.000000
# 2 -0.000966 0.008450 0.002682 0.000000 0.000000 0.000000
# 3 0.002681 0.002682 0.040788 0.000000 0.000000 0.000000
# 4 0.000000 0.000000 0.000000 -0.030942 0.000000 0.000000
# 5 0.000000 0.000000 0.000000 0.000000 -0.030941 0.000000
# 6 0.000000 0.000000 0.000000 0.000000 0.000000 0.032615
#
#
# Mechanical properties :
#
#
# Convention : Reuss Voigt Hill
#
# Bulk Modulus (GPa) = 15.04152 29.92216 22.48184
# Shear Modulus (GPa) = 119.65306 11.44300 65.54803
#
# Velocity S-wave (km/s) = 7.92374 2.45041 5.86473
# Velocity P-wave (km/s) = 9.57115 4.86899 7.59322
#
# Compressibility (1/GPa) = 0.06648266
#
# Stress axis : x y z
#
# Youngs Moduli (GPa) = 118.34208 118.34006 24.51686
#
# Poissons Ratio (x) = 0.11432 -0.06574
# Poissons Ratio (y) = 0.11432 -0.06575
# Poissons Ratio (z) = -0.31732 -0.31736
#
# Static dielectric constant tensor:
#      x y z
#    x 1.724040 0.000000 0.000000 
#    y 0.000000 1.724040 0.000000 
#    z 0.000000 0.000000 1.652580 
# 
# From -- ./inp_files/3531.got.cif
#   From: 2010.05.17/outbox.cif.g08.bks.cpg/sg129_2_cif.got.tgz:3531.got - 2010.05.20 12:12:06.
