data_PCOD9565460
_publ_section_title
;
Structure prediction by ZEFSAII (Michael W. Deem and Ramdas Pophale) SiO2 
 PCOD9565460
Probable space group: P 4/N M M
;
_chemical_formula_sum "Si O2"
_cell_formula_units_Z 96
_cell_length_a 24.006328
_cell_length_b 24.006328
_cell_length_c 9.165511
_cell_angle_alpha 90.000000
_cell_angle_beta 90.000000
_cell_angle_gamma 90.000000
_cell_volume 5282.118672
_symmetry_space_group_name_H-M "P 4/N M M"
_symmetry_group_IT_number 129
_symmetry_cell_setting 'tetragonal'
loop_
_space_group_symop_operation_xyz
x,y,z
1/2-y,x,z
1/2-x,1/2-y,z
y,1/2-x,z
1/2+x,-y,-z
-x,1/2+y,-z
1/2+y,1/2+x,-z
-y,-x,-z
-x,-y,-z
1/2+y,-x,-z
1/2+x,1/2+y,-z
-y,1/2+x,-z
1/2-x,y,z
x,1/2-y,z
1/2-y,1/2-x,z
y,x,z
loop_
_atom_site_type_symbol
_atom_site_label
_atom_site_fract_x
_atom_site_fract_y
_atom_site_fract_z
Si Si1 0.126177 0.923103 0.753226
Si Si2 0.984605 0.604278 0.479769
Si Si3 0.904404 0.685424 0.312953
Si Si4 0.498194 0.589317 0.822931
Si Si5 0.313737 0.489579 0.949378
Si Si6 0.185695 0.683898 0.174724
O O1 0.148302 0.860342 0.740683
O O2 0.067019 0.923631 0.834441
O O3 0.115443 0.958475 0.606730
O O4 0.170536 0.957092 0.850142
O O5 0.953961 0.546040 0.434692
O O6 0.942425 0.652446 0.428907
O O7 0.992225 0.602827 0.652183
O O8 0.899508 0.750000 0.349251
O O9 0.846099 0.653902 0.304142
O O10 0.937165 0.680301 0.159449
O O11 0.537204 0.537204 0.862012
O O12 0.513192 0.642006 0.921677
O O13 0.250000 0.493511 0.999423
O O14 0.250000 0.668457 0.205699
O O15 0.179578 0.750000 0.204385
O O16 0.176435 0.676435 0.000000
#
# Coordination Sequence:
#
# PCOD9565460 Si02
#       6
#    16  16  16  16  16  16
#     4  11  20  32  54  79 105 136 174 218 266 316
#     4   9  20  37  53  74 107 141 173 213 264 318
#     4   9  18  34  55  78 105 137 171 210 257 307
#     4  11  22  35  54  80 107 138 177 220 265 316
#     4  10  21  35  52  77 108 138 171 214 261 312
#     4   9  18  33  52  74 102 136 175 220 265 308
#
# _framework density 18.174524999999999
#
# number of rings (size 3 to 8) (size 9 to 14) (size 15 to 20)
#    0.000    2.167    0.000    4.000    0.000    7.500 
#    0.000    0.000    0.000    6.000    0.000    4.667 
#    0.000    4.000    0.000    0.000    0.000    0.000 
#
# Total GULP energy -536082.066873 kJ/mol
# GULP energy per Si atom -5584.188197 kJ/mol
# Density = 1.813316 g / cm^3
# Si number density = 18.174525 Si / 1000 Ang^3
#
#
#
# Elastic Constant Matrix: (Units=GPa)
#
#
# Indices 1 2 3 4 5 6 
#
# 1 80.2736 67.7086 19.4181 0.0000 0.0000 0.0000
# 2 67.7086 80.2736 19.4181 0.0000 0.0000 0.0000
# 3 19.4181 19.4181 45.9171 0.0000 0.0000 0.0000
# 4 0.0000 0.0000 0.0000 18.4958 0.0000 0.0000
# 5 0.0000 0.0000 0.0000 0.0000 18.4958 0.0000
# 6 0.0000 0.0000 0.0000 0.0000 0.0000 24.8531
#
#
#
# Elastic Compliance Matrix: (Units=1/GPa)
#
#
# Indices 1 2 3 4 5 6 
#
# 1 0.043594 -0.035992 -0.003214 0.000000 0.000000 0.000000
# 2 -0.035992 0.043594 -0.003214 0.000000 0.000000 0.000000
# 3 -0.003214 -0.003214 0.024497 0.000000 0.000000 0.000000
# 4 0.000000 0.000000 0.000000 0.054066 0.000000 0.000000
# 5 0.000000 0.000000 0.000000 0.000000 0.054066 0.000000
# 6 0.000000 0.000000 0.000000 0.000000 0.000000 0.040236
#
#
# Mechanical properties :
#
#
# Convention : Reuss Voigt Hill
#
# Bulk Modulus (GPa) = 37.25572 46.61711 41.93642
# Shear Modulus (GPa) = 14.13054 19.03026 16.58040
#
# Velocity S-wave (km/s) = 2.79138 3.23938 3.02369
# Velocity P-wave (km/s) = 5.56169 6.30054 5.94261
#
# Compressibility (1/GPa) = 0.02684151
#
# Stress axis : x y z
#
# Youngs Moduli (GPa) = 22.93912 22.93912 40.82109
#
# Poissons Ratio (x) = 0.82564 0.13122
# Poissons Ratio (y) = 0.82564 0.13122
# Poissons Ratio (z) = 0.07374 0.07374
#
# Static dielectric constant tensor:
#      x y z
#    x 1.626610 0.000000 0.000000 
#    y 0.000000 1.626610 0.000000 
#    z 0.000000 0.000000 1.619160 
# 
# From -- ./inp_files/2654.got.cif
#   From: 2010.05.17/outbox.cif.g08.bks.cpg/sg129_2_cif.got.tgz:2654.got - 2010.05.20 12:12:06.
