data_PCOD9565052
_publ_section_title
;
Structure prediction by ZEFSAII (Michael W. Deem and Ramdas Pophale) SiO2 
 PCOD9565052
Probable space group: P 4/M N C
;
_chemical_formula_sum "Si O2"
_cell_formula_units_Z 46
_cell_length_a 8.480828
_cell_length_b 8.480828
_cell_length_c 27.929053
_cell_angle_alpha 90.000000
_cell_angle_beta 90.000000
_cell_angle_gamma 90.000000
_cell_volume 2008.781596
_symmetry_space_group_name_H-M "P 4/M N C"
_symmetry_group_IT_number 128
_symmetry_cell_setting 'tetragonal'
loop_
_space_group_symop_operation_xyz
x,y,z
-y,x,z
-x,-y,z
y,-x,z
1/2+x,1/2-y,1/2-z
1/2-x,1/2+y,1/2-z
1/2+y,1/2+x,1/2-z
1/2-y,1/2-x,1/2-z
-x,-y,-z
y,-x,-z
x,y,-z
-y,x,-z
1/2-x,1/2+y,1/2+z
1/2+x,1/2-y,1/2+z
1/2-y,1/2-x,1/2+z
1/2+y,1/2+x,1/2+z
loop_
_atom_site_type_symbol
_atom_site_label
_atom_site_fract_x
_atom_site_fract_y
_atom_site_fract_z
Si Si1 0.146063 0.382356 0.500000
Si Si2 0.000000 0.000000 0.249680
Si Si3 0.500000 0.000000 0.329573
Si Si4 0.000000 0.000000 0.000000
Si Si5 0.242607 0.905386 0.603503
Si Si6 0.812209 0.312209 0.750000
O O1 0.307025 0.479960 0.500000
O O2 0.128882 0.283522 0.548534
O O3 0.000000 0.500000 0.500000
O O4 0.873463 0.851152 0.250100
O O5 0.605354 0.114783 0.363235
O O6 0.389921 0.105886 0.296224
O O7 0.086881 0.805058 0.613038
#
# Coordination Sequence:
#
# PCOD9565052 Si02
#       6
#     8   4   8   2  16   8
#     4  12  24  49  70 110 156 200 266 332 393 475
#     4  12  28  56  81 116 148 222 248 332 409 492
#     4  11  26  47  72 118 150 209 256 325 390 494
#     4  12  28  44  86 112 152 228 272 336 418 504
#     4  11  25  44  74 108 153 205 259 325 399 475
#     4  11  28  49  80 108 162 196 266 320 404 472
#
# _framework density 22.899452
#
# number of rings (size 3 to 8) (size 9 to 14) (size 15 to 20)
#    0.000    0.696    1.739    5.217    9.739    1.391 
#    0.000    1.739    0.000    0.000    0.000    0.000 
#    0.000    0.000    0.000    0.000    0.000    0.000 
#
# Total GULP energy -256183.404152 kJ/mol
# GULP energy per Si atom -5569.204438 kJ/mol
# Density = 2.284733 g / cm^3
# Si number density = 22.899452 Si / 1000 Ang^3
#
#
#
# Elastic Constant Matrix: (Units=GPa)
#
#
# Indices 1 2 3 4 5 6 
#
# 1 147.2118 7.5898 25.3189 0.0000 0.0000 0.0000
# 2 7.5898 147.2118 25.3189 0.0000 0.0000 0.0000
# 3 25.3189 25.3189 139.6659 0.0000 0.0000 0.0000
# 4 0.0000 0.0000 0.0000 5.0053 0.0000 0.0000
# 5 0.0000 0.0000 0.0000 0.0000 5.0053 0.0000
# 6 0.0000 0.0000 0.0000 0.0000 0.0000 33.8559
#
#
#
# Elastic Compliance Matrix: (Units=1/GPa)
#
#
# Indices 1 2 3 4 5 6 
#
# 1 0.007015 -0.000148 -0.001245 0.000000 0.000000 0.000000
# 2 -0.000148 0.007015 -0.001245 0.000000 0.000000 0.000000
# 3 -0.001245 -0.001245 0.007611 0.000000 0.000000 0.000000
# 4 0.000000 0.000000 0.000000 0.199786 0.000000 0.000000
# 5 0.000000 0.000000 0.000000 0.000000 0.199786 0.000000
# 6 0.000000 0.000000 0.000000 0.000000 0.000000 0.029537
#
#
# Mechanical properties :
#
#
# Convention : Reuss Voigt Hill
#
# Bulk Modulus (GPa) = 61.10241 61.17164 61.13703
# Shear Modulus (GPa) = 10.83470 33.83078 22.33274
#
# Velocity S-wave (km/s) = 2.17754 3.84782 3.12629
# Velocity P-wave (km/s) = 5.75005 6.81998 6.30774
#
# Compressibility (1/GPa) = 0.01636597
#
# Stress axis : x y z
#
# Youngs Moduli (GPa) = 142.55884 142.55884 131.38369
#
# Poissons Ratio (x) = 0.02103 0.16356
# Poissons Ratio (y) = 0.02103 0.16356
# Poissons Ratio (z) = 0.17747 0.17747
#
# Static dielectric constant tensor:
#      x y z
#    x 1.801570 0.000000 0.000000 
#    y 0.000000 1.801570 0.000000 
#    z 0.000000 0.000000 1.922900 
# 
# From -- ./inp_files/7016.got.cif
#   From: 2010.05.17/outbox.cif.g08.bks.cpg/sg128_4_cif.got.tgz:7016.got - 2010.05.20 12:07:25.
