data_PCOD9565188
_publ_section_title
;
Structure prediction by ZEFSAII (Michael W. Deem and Ramdas Pophale) SiO2 
 PCOD9565188
Probable space group: P 4/N M M
;
_chemical_formula_sum "Si O2"
_cell_formula_units_Z 112
_cell_length_a 14.370198
_cell_length_b 14.370198
_cell_length_c 35.451791
_cell_angle_alpha 90.000000
_cell_angle_beta 90.000000
_cell_angle_gamma 90.000000
_cell_volume 7320.886681
_symmetry_space_group_name_H-M "P 4/N M M"
_symmetry_group_IT_number 129
_symmetry_cell_setting 'tetragonal'
loop_
_space_group_symop_operation_xyz
x,y,z
1/2-y,x,z
1/2-x,1/2-y,z
y,1/2-x,z
1/2+x,-y,-z
-x,1/2+y,-z
1/2+y,1/2+x,-z
-y,-x,-z
-x,-y,-z
1/2+y,-x,-z
1/2+x,1/2+y,-z
-y,1/2+x,-z
1/2-x,y,z
x,1/2-y,z
1/2-y,1/2-x,z
y,x,z
loop_
_atom_site_type_symbol
_atom_site_label
_atom_site_fract_x
_atom_site_fract_y
_atom_site_fract_z
Si Si1 0.362137 0.514733 0.112769
Si Si2 0.141002 0.512132 0.250831
Si Si3 0.643222 0.137096 0.042050
Si Si4 0.357885 0.510629 0.522819
Si Si5 0.358204 0.988996 0.612695
Si Si6 0.144512 0.862670 0.816346
Si Si7 0.641122 0.487497 0.660543
O O1 0.250000 0.500615 0.113018
O O2 0.419517 0.419517 0.113902
O O3 0.388090 0.573738 0.075470
O O4 0.387897 0.578249 0.148814
O O5 0.250000 0.491388 0.243847
O O6 0.112067 0.594763 0.222850
O O7 0.131687 0.536438 0.295006
O O8 0.077165 0.422836 0.243324
O O9 0.750000 0.104954 0.048482
O O10 0.647216 0.250000 0.041572
O O11 0.610541 0.110541 0.000000
O O12 0.406756 0.593245 0.500000
O O13 0.250000 0.499840 0.512979
O O14 0.417879 0.417879 0.514835
O O15 0.364583 0.528392 0.567735
O O16 0.250000 0.998465 0.622564
O O17 0.408414 0.906819 0.635420
O O18 0.417643 0.082358 0.620533
O O19 0.250000 0.898060 0.819794
O O20 0.149817 0.750000 0.817041
O O21 0.750000 0.499086 0.652170
O O22 0.581854 0.581854 0.654333
#
# Coordination Sequence:
#
# PCOD9565188 Si02
#       7
#    16  16  16  16  16  16  16
#     4  10  19  29  42  61  86 115 144 174 210 255
#     4   9  17  29  45  66  92 120 148 177 211 255
#     4   8  14  26  44  64  85 109 139 177 217 252
#     4   9  18  32  49  69  93 120 150 186 227 271
#     4   9  18  32  49  69  92 118 150 189 232 276
#     4   9  17  29  44  61  82 108 139 177 217 252
#     4   9  18  31  46  66  93 124 157 190 222 261
#
# _framework density 15.298693999999999
#
# number of rings (size 3 to 8) (size 9 to 14) (size 15 to 20)
#    0.000    3.000    0.000    1.286    0.000    4.286 
#    0.000    5.714    0.000    2.571    0.000    4.000 
#    0.000   13.429    0.000    0.000    0.000    0.000 
#
# Total GULP energy -623614.365161 kJ/mol
# GULP energy per Si atom -5567.985403 kJ/mol
# Density = 1.526387 g / cm^3
# Si number density = 15.298694 Si / 1000 Ang^3
#
#
#
# Elastic Constant Matrix: (Units=GPa)
#
#
# Indices 1 2 3 4 5 6 
#
# 1 100.4701 55.2370 54.3337 0.0000 0.0000 0.0000
# 2 55.2370 100.4682 54.3341 0.0000 0.0000 0.0000
# 3 54.3337 54.3341 53.0300 0.0000 0.0000 0.0000
# 4 0.0000 0.0000 0.0000 21.2496 0.0000 0.0000
# 5 0.0000 0.0000 0.0000 0.0000 21.2496 0.0000
# 6 0.0000 0.0000 0.0000 0.0000 0.0000 10.7951
#
#
#
# Elastic Compliance Matrix: (Units=1/GPa)
#
#
# Indices 1 2 3 4 5 6 
#
# 1 0.022323 0.000216 -0.023093 0.000000 0.000000 0.000000
# 2 0.000216 0.022325 -0.023095 0.000000 0.000000 0.000000
# 3 -0.023093 -0.023095 0.066181 0.000000 0.000000 0.000000
# 4 0.000000 0.000000 0.000000 0.047060 0.000000 0.000000
# 5 0.000000 0.000000 0.000000 0.000000 0.047060 0.000000
# 6 0.000000 0.000000 0.000000 0.000000 0.000000 0.092634
#
#
# Mechanical properties :
#
#
# Convention : Reuss Voigt Hill
#
# Bulk Modulus (GPa) = 52.95347 64.64199 58.79773
# Shear Modulus (GPa) = 12.63198 16.66311 14.64754
#
# Velocity S-wave (km/s) = 2.87660 3.30386 3.09761
# Velocity P-wave (km/s) = 6.76175 7.54314 7.16311
#
# Compressibility (1/GPa) = 0.01888450
#
# Stress axis : x y z
#
# Youngs Moduli (GPa) = 44.79633 44.79375 15.11017
#
# Poissons Ratio (x) = -0.00966 0.34894
# Poissons Ratio (y) = -0.00966 0.34896
# Poissons Ratio (z) = 1.03449 1.03449
#
# Static dielectric constant tensor:
#      x y z
#    x 1.491390 0.000000 0.000000 
#    y 0.000000 1.491390 0.000000 
#    z 0.000000 0.000000 1.523210 
# 
# From -- ./inp_files/7892.got.cif
#   From: 2010.05.17/outbox.cif.g08.bks.cpg/sg129_4_cif.got.tgz:7892.got - 2010.05.20 12:12:06.
