data_PCOD9565927
_publ_section_title
;
Structure prediction by ZEFSAII (Michael W. Deem and Ramdas Pophale) SiO2 
 PCOD9565927
Probable space group: P 4/N C C
;
_chemical_formula_sum "Si O2"
_cell_formula_units_Z 80
_cell_length_a 16.512996
_cell_length_b 16.512996
_cell_length_c 13.317076
_cell_angle_alpha 90.000000
_cell_angle_beta 90.000000
_cell_angle_gamma 90.000000
_cell_volume 3631.287458
_symmetry_space_group_name_H-M "P 4/N C C"
_symmetry_group_IT_number 130
_symmetry_cell_setting 'tetragonal'
loop_
_space_group_symop_operation_xyz
x,y,z
1/2-y,x,z
1/2-x,1/2-y,z
y,1/2-x,z
1/2+x,-y,1/2-z
-x,1/2+y,1/2-z
1/2+y,1/2+x,1/2-z
-y,-x,1/2-z
-x,-y,-z
1/2+y,-x,-z
1/2+x,1/2+y,-z
-y,1/2+x,-z
1/2-x,y,1/2+z
x,1/2-y,1/2+z
1/2-y,1/2-x,1/2+z
y,x,1/2+z
loop_
_atom_site_type_symbol
_atom_site_label
_atom_site_fract_x
_atom_site_fract_y
_atom_site_fract_z
Si Si1 0.163160 0.705999 0.358899
Si Si2 0.432791 0.345652 0.474314
Si Si3 0.318972 0.476228 0.364374
Si Si4 0.295110 0.373623 0.184086
Si Si5 0.636556 0.399805 0.942373
O O1 0.250000 0.750000 0.365789
O O2 0.162825 0.662825 0.250000
O O3 0.153410 0.646332 0.452377
O O4 0.101822 0.780285 0.378446
O O5 0.375614 0.410705 0.421317
O O6 0.465099 0.272656 0.404545
O O7 0.386500 0.303232 0.566163
O O8 0.510194 0.387656 0.525852
O O9 0.321440 0.449914 0.248987
O O10 0.352315 0.565314 0.386150
O O11 0.203618 0.349845 0.211083
#
# Coordination Sequence:
#
# PCOD9565927 Si02
#       5
#    16  16  16  16  16
#     4  11  22  42  70  98 133 191 238 272 336 417
#     4  12  25  44  73 102 140 183 231 288 357 414
#     4  12  25  46  72 102 141 184 231 290 353 416
#     4  11  24  43  72 102 135 184 238 281 338 419
#     4  12  24  48  67 104 146 176 230 299 346 415
#
# _framework density 22.030753000000001
#
# number of rings (size 3 to 8) (size 9 to 14) (size 15 to 20)
#    0.000    0.400    8.000    0.600    0.000    6.000 
#    3.600    0.000    0.000    0.000    0.000    0.000 
#    0.000    0.000    0.000    0.000    0.000    0.000 
#
# Total GULP energy -447715.002971 kJ/mol
# GULP energy per Si atom -5596.437537 kJ/mol
# Density = 2.198061 g / cm^3
# Si number density = 22.030753 Si / 1000 Ang^3
#
#
#
# Elastic Constant Matrix: (Units=GPa)
#
#
# Indices 1 2 3 4 5 6 
#
# 1 72.8605 14.5768 23.9843 0.0000 0.0000 0.0000
# 2 14.5768 72.8605 23.9843 0.0000 0.0000 0.0000
# 3 23.9843 23.9843 95.2942 0.0000 0.0000 0.0000
# 4 0.0000 0.0000 0.0000 30.4668 0.0000 0.0000
# 5 0.0000 0.0000 0.0000 0.0000 30.4668 0.0000
# 6 0.0000 0.0000 0.0000 0.0000 0.0000 31.4425
#
#
#
# Elastic Compliance Matrix: (Units=1/GPa)
#
#
# Indices 1 2 3 4 5 6 
#
# 1 0.015213 -0.001944 -0.003340 0.000000 0.000000 0.000000
# 2 -0.001944 0.015213 -0.003340 0.000000 0.000000 0.000000
# 3 -0.003340 -0.003340 0.012175 0.000000 0.000000 0.000000
# 4 0.000000 0.000000 0.000000 0.032823 0.000000 0.000000
# 5 0.000000 0.000000 0.000000 0.000000 0.032823 0.000000
# 6 0.000000 0.000000 0.000000 0.000000 0.000000 0.031804
#
#
# Mechanical properties :
#
#
# Convention : Reuss Voigt Hill
#
# Bulk Modulus (GPa) = 39.44109 40.67842 40.05976
# Shear Modulus (GPa) = 30.16609 30.37319 30.26964
#
# Velocity S-wave (km/s) = 3.70438 3.71708 3.71073
# Velocity P-wave (km/s) = 6.01982 6.07673 6.04834
#
# Compressibility (1/GPa) = 0.02535427
#
# Stress axis : x y z
#
# Youngs Moduli (GPa) = 65.73249 65.73249 82.13631
#
# Poissons Ratio (x) = 0.12780 0.27430
# Poissons Ratio (y) = 0.12780 0.27430
# Poissons Ratio (z) = 0.21952 0.21952
#
# Static dielectric constant tensor:
#      x y z
#    x 1.806070 0.000000 0.000000 
#    y 0.000000 1.806070 0.000000 
#    z 0.000000 0.000000 1.812030 
# 
# From -- ./inp_files/2321.got.cif
#   From: 2010.05.17/outbox.cif.g08.bks.cpg/sg130_2_cif.got.tgz:2321.got - 2010.05.20 12:17:35.
