data_PCOD9565235
_publ_section_title
;
Structure prediction by ZEFSAII (Michael W. Deem and Ramdas Pophale) SiO2 
 PCOD9565235
Probable space group: P 4/N M M
;
_chemical_formula_sum "Si O2"
_cell_formula_units_Z 72
_cell_length_a 19.659809
_cell_length_b 19.659809
_cell_length_c 12.880464
_cell_angle_alpha 90.000000
_cell_angle_beta 90.000000
_cell_angle_gamma 90.000000
_cell_volume 4978.403538
_symmetry_space_group_name_H-M "P 4/N M M"
_symmetry_group_IT_number 129
_symmetry_cell_setting 'tetragonal'
loop_
_space_group_symop_operation_xyz
x,y,z
1/2-y,x,z
1/2-x,1/2-y,z
y,1/2-x,z
1/2+x,-y,-z
-x,1/2+y,-z
1/2+y,1/2+x,-z
-y,-x,-z
-x,-y,-z
1/2+y,-x,-z
1/2+x,1/2+y,-z
-y,1/2+x,-z
1/2-x,y,z
x,1/2-y,z
1/2-y,1/2-x,z
y,x,z
loop_
_atom_site_type_symbol
_atom_site_label
_atom_site_fract_x
_atom_site_fract_y
_atom_site_fract_z
Si Si1 0.443032 0.168856 0.205469
Si Si2 0.831166 0.084480 0.704875
Si Si3 0.330709 0.830709 0.500000
Si Si4 0.994252 0.610712 0.015144
Si Si5 0.884964 0.326702 0.892894
O O1 0.430464 0.250000 0.204133
O O2 0.376445 0.123556 0.225941
O O3 0.504302 0.153527 0.285932
O O4 0.472511 0.144557 0.093486
O O5 0.750000 0.091104 0.718478
O O6 0.848548 0.122490 0.598299
O O7 0.864735 0.122732 0.801625
O O8 0.339922 0.750000 0.476371
O O9 0.034835 0.664447 0.083762
O O10 0.928261 0.571740 0.058555
O O11 0.051365 0.551365 0.000000
O O12 0.867626 0.250000 0.864413
O O13 0.846591 0.346591 0.000000
#
# Coordination Sequence:
#
# PCOD9565235 Si02
#       5
#    16  16   8  16  16
#     4  10  19  32  49  68  92 121 154 192 234 279
#     4  10  19  31  45  63  89 124 159 188 228 274
#     4   9  18  32  47  62  86 124 165 192 214 261
#     4   9  16  27  43  62  87 120 150 177 216 271
#     4  11  19  26  40  65  94 117 147 188 228 270
#
# _framework density 14.462467
#
# number of rings (size 3 to 8) (size 9 to 14) (size 15 to 20)
#    0.000    2.111    4.444    2.000    0.000    2.667 
#    0.000    0.556    0.000    0.000    0.000    0.000 
#    0.000    0.000    0.000    0.000    0.000   30.222 
#
# Total GULP energy -400805.670006 kJ/mol
# GULP energy per Si atom -5566.745417 kJ/mol
# Density = 1.442955 g / cm^3
# Si number density = 14.462467 Si / 1000 Ang^3
#
#
#
# Elastic Constant Matrix: (Units=GPa)
#
#
# Indices 1 2 3 4 5 6 
#
# 1 75.2186 54.0395 36.9852 0.0000 0.0000 0.0000
# 2 54.0395 75.2186 36.9852 0.0000 0.0000 0.0000
# 3 36.9852 36.9852 69.4669 0.0000 0.0000 0.0000
# 4 0.0000 0.0000 0.0000 16.2700 0.0000 0.0000
# 5 0.0000 0.0000 0.0000 0.0000 16.2700 0.0000
# 6 0.0000 0.0000 0.0000 0.0000 0.0000 21.9123
#
#
#
# Elastic Compliance Matrix: (Units=1/GPa)
#
#
# Indices 1 2 3 4 5 6 
#
# 1 0.029171 -0.018045 -0.005924 0.000000 0.000000 0.000000
# 2 -0.018045 0.029171 -0.005924 0.000000 0.000000 0.000000
# 3 -0.005924 -0.005924 0.020703 0.000000 0.000000 0.000000
# 4 0.000000 0.000000 0.000000 0.061463 0.000000 0.000000
# 5 0.000000 0.000000 0.000000 0.000000 0.061463 0.000000
# 6 0.000000 0.000000 0.000000 0.000000 0.000000 0.045636
#
#
# Mechanical properties :
#
#
# Convention : Reuss Voigt Hill
#
# Bulk Modulus (GPa) = 51.91929 52.88045 52.39987
# Shear Modulus (GPa) = 15.93300 17.01673 16.47486
#
# Velocity S-wave (km/s) = 3.32276 3.43390 3.37879
# Velocity P-wave (km/s) = 7.12027 7.23640 7.17857
#
# Compressibility (1/GPa) = 0.01926067
#
# Stress axis : x y z
#
# Youngs Moduli (GPa) = 34.28018 34.28018 48.30132
#
# Poissons Ratio (x) = 0.61858 0.28613
# Poissons Ratio (y) = 0.61858 0.28613
# Poissons Ratio (z) = 0.20307 0.20307
#
# Static dielectric constant tensor:
#      x y z
#    x 1.501090 0.000000 0.000000 
#    y 0.000000 1.501090 0.000000 
#    z 0.000000 0.000000 1.457710 
# 
# From -- ./inp_files/3688.got.cif
#   From: 2010.05.17/outbox.cif.g08.bks.cpg/sg129_2_cif.got.tgz:3688.got - 2010.05.20 12:12:06.
