data_PCOD9565758
_publ_section_title
;
Structure prediction by ZEFSAII (Michael W. Deem and Ramdas Pophale) SiO2 
 PCOD9565758
Probable space group: P 4/N C C
;
_chemical_formula_sum "Si O2"
_cell_formula_units_Z 40
_cell_length_a 13.211022
_cell_length_b 13.211022
_cell_length_c 9.183265
_cell_angle_alpha 90.000000
_cell_angle_beta 90.000000
_cell_angle_gamma 90.000000
_cell_volume 1602.765363
_symmetry_space_group_name_H-M "P 4/N C C"
_symmetry_group_IT_number 130
_symmetry_cell_setting 'tetragonal'
loop_
_space_group_symop_operation_xyz
x,y,z
1/2-y,x,z
1/2-x,1/2-y,z
y,1/2-x,z
1/2+x,-y,1/2-z
-x,1/2+y,1/2-z
1/2+y,1/2+x,1/2-z
-y,-x,1/2-z
-x,-y,-z
1/2+y,-x,-z
1/2+x,1/2+y,-z
-y,1/2+x,-z
1/2-x,y,1/2+z
x,1/2-y,1/2+z
1/2-y,1/2-x,1/2+z
y,x,1/2+z
loop_
_atom_site_type_symbol
_atom_site_label
_atom_site_fract_x
_atom_site_fract_y
_atom_site_fract_z
Si Si1 0.118899 0.453651 0.076573
Si Si2 0.859879 0.140122 0.250000
Si Si3 0.804595 0.986438 0.740779
O O1 0.155363 0.444883 0.912141
O O2 0.895640 0.428361 0.885380
O O3 0.211658 0.425398 0.185179
O O4 0.024597 0.391770 0.138768
O O5 0.902750 0.252211 0.278268
#
# Coordination Sequence:
#
# PCOD9565758 Si02
#       3
#    16   8  16
#     4  10  21  42  74 104 149 193 252 307 378 443
#     4   8  24  42  68 112 150 194 242 318 378 454
#     4  10  21  43  71 112 146 193 248 317 377 442
#
# _framework density 24.956862999999998
#
# number of rings (size 3 to 8) (size 9 to 14) (size 15 to 20)
#    2.400    0.000    0.000    2.400    0.000    2.400 
#    0.000    4.000    0.000    9.600    0.000    0.000 
#    0.000    0.000    0.000    0.000    0.000    0.000 
#
# Total GULP energy -222804.894666 kJ/mol
# GULP energy per Si atom -5570.122367 kJ/mol
# Density = 2.490006 g / cm^3
# Si number density = 24.956863 Si / 1000 Ang^3
#
#
#
# Elastic Constant Matrix: (Units=GPa)
#
#
# Indices 1 2 3 4 5 6 
#
# 1 67.4303 101.2217 76.2596 0.0000 0.0000 0.0000
# 2 101.2217 67.4305 76.2590 0.0000 0.0000 0.0000
# 3 76.2596 76.2590 256.3119 0.0000 0.0000 0.0000
# 4 0.0000 0.0000 0.0000 50.0423 0.0000 0.0000
# 5 0.0000 0.0000 0.0000 0.0000 50.0385 0.0000
# 6 0.0000 0.0000 0.0000 0.0000 0.0000 65.1855
#
#
#
# Elastic Compliance Matrix: (Units=1/GPa)
#
#
# Indices 1 2 3 4 5 6 
#
# 1 -0.010741 0.018853 -0.002413 0.000000 0.000000 0.000000
# 2 0.018853 -0.010741 -0.002414 0.000000 0.000000 0.000000
# 3 -0.002413 -0.002414 0.005338 0.000000 0.000000 0.000000
# 4 0.000000 0.000000 0.000000 0.019983 0.000000 0.000000
# 5 0.000000 0.000000 0.000000 0.000000 0.019985 0.000000
# 6 0.000000 0.000000 0.000000 0.000000 0.000000 0.015341
#
#
# Mechanical properties :
#
#
# Convention : Reuss Voigt Hill
#
# Bulk Modulus (GPa) = 83.98014 99.85035 91.91524
# Shear Modulus (GPa) = 331.50784 42.21543 186.86163
#
# Velocity S-wave (km/s) = 11.53779 4.11729 8.66235
# Velocity P-wave (km/s) = 14.53332 7.91826 11.70291
#
# Compressibility (1/GPa) = 0.01190758
#
# Stress axis : x y z
#
# Youngs Moduli (GPa) = -93.10301 -93.10424 187.34771
#
# Poissons Ratio (x) = 1.75527 0.45216
# Poissons Ratio (y) = 1.75525 0.45218
# Poissons Ratio (z) = -0.22470 -0.22471
#
# Static dielectric constant tensor:
#      x y z
#    x 2.064950 0.000000 0.000000 
#    y 0.000000 2.064950 0.000000 
#    z 0.000000 0.000000 1.917650 
# 
# From -- ./inp_files/413.got.cif
#   From: 2010.05.17/outbox.cif.g08.bks.cpg/sg130_1_cif.got.tgz:413.got - 2010.05.20 12:17:35.
