data_PCOD9565558
_publ_section_title
;
Structure prediction by ZEFSAII (Michael W. Deem and Ramdas Pophale) SiO2 
 PCOD9565558
Probable space group: P 4/N C C
;
_chemical_formula_sum "Si O2"
_cell_formula_units_Z 64
_cell_length_a 13.885441
_cell_length_b 13.885441
_cell_length_c 15.305071
_cell_angle_alpha 90.000000
_cell_angle_beta 90.000000
_cell_angle_gamma 90.000000
_cell_volume 2950.901435
_symmetry_space_group_name_H-M "P 4/N C C"
_symmetry_group_IT_number 130
_symmetry_cell_setting 'tetragonal'
loop_
_space_group_symop_operation_xyz
x,y,z
1/2-y,x,z
1/2-x,1/2-y,z
y,1/2-x,z
1/2+x,-y,1/2-z
-x,1/2+y,1/2-z
1/2+y,1/2+x,1/2-z
-y,-x,1/2-z
-x,-y,-z
1/2+y,-x,-z
1/2+x,1/2+y,-z
-y,1/2+x,-z
1/2-x,y,1/2+z
x,1/2-y,1/2+z
1/2-y,1/2-x,1/2+z
y,x,1/2+z
loop_
_atom_site_type_symbol
_atom_site_label
_atom_site_fract_x
_atom_site_fract_y
_atom_site_fract_z
Si Si1 0.020726 0.979275 0.250000
Si Si2 0.750000 0.750000 0.125665
Si Si3 0.457224 0.169373 0.839275
Si Si4 0.589153 0.245252 0.990881
Si Si5 0.250000 0.750000 0.750000
Si Si6 0.731348 0.463275 0.824887
O O1 0.122644 0.984075 0.202039
O O2 0.941181 0.986396 0.174347
O O3 0.651717 0.817495 0.130248
O O4 0.472173 0.208129 0.741136
O O5 0.531369 0.223985 0.902815
O O6 0.519568 0.252755 0.074178
O O7 0.655782 0.339529 0.988277
O O8 0.150813 0.750817 0.805044
#
# Coordination Sequence:
#
# PCOD9565558 Si02
#       6
#     8   4  16  16   4  16
#     4  11  23  41  72  95 133 189 240 286 348 428
#     4  12  28  52  66  92 152 202 224 296 354 420
#     4  12  25  48  69  99 146 184 237 294 351 416
#     4  11  23  41  72 111 139 170 228 300 362 414
#     4  10  18  36  70 104 142 164 220 304 362 388
#     4  11  22  41  68 102 134 184 231 286 357 418
#
# _framework density 21.688289000000001
#
# number of rings (size 3 to 8) (size 9 to 14) (size 15 to 20)
#    0.000    0.750    2.500    8.250    0.000    1.000 
#    4.500    1.250    0.000    0.000    0.000    0.000 
#    0.000    0.000    0.000    0.000    0.000    0.000 
#
# Total GULP energy -357146.130686 kJ/mol
# GULP energy per Si atom -5580.408292 kJ/mol
# Density = 2.163893 g / cm^3
# Si number density = 21.688289 Si / 1000 Ang^3
#
#
#
# Elastic Constant Matrix: (Units=GPa)
#
#
# Indices 1 2 3 4 5 6 
#
# 1 61.2889 3.2569 -0.6481 0.0000 0.0000 0.0000
# 2 3.2569 61.2861 -0.6477 0.0000 0.0000 0.0000
# 3 -0.6481 -0.6477 97.2414 0.0000 0.0000 0.0000
# 4 0.0000 0.0000 0.0000 -136.0206 0.0000 0.0000
# 5 0.0000 0.0000 0.0000 0.0000 -135.7665 0.0000
# 6 0.0000 0.0000 0.0000 0.0000 0.0000 32.6684
#
#
#
# Elastic Compliance Matrix: (Units=1/GPa)
#
#
# Indices 1 2 3 4 5 6 
#
# 1 0.016363 -0.000868 0.000103 0.000000 0.000000 0.000000
# 2 -0.000868 0.016364 0.000103 0.000000 0.000000 0.000000
# 3 0.000103 0.000103 0.010285 0.000000 0.000000 0.000000
# 4 0.000000 0.000000 0.000000 -0.007352 0.000000 0.000000
# 5 0.000000 0.000000 0.000000 0.000000 -0.007366 0.000000
# 6 0.000000 0.000000 0.000000 0.000000 0.000000 0.030611
#
#
# Mechanical properties :
#
#
# Convention : Reuss Voigt Hill
#
# Bulk Modulus (GPa) = 23.98737 24.85984 24.42360
# Shear Modulus (GPa) = 67.45263 -33.30006 17.07629
#
# Velocity S-wave (km/s) = 5.58287 -3.92266 2.80902
# Velocity P-wave (km/s) = 7.25548 3.00485 4.66974
#
# Compressibility (1/GPa) = 0.04168860
#
# Stress axis : x y z
#
# Youngs Moduli (GPa) = 61.11195 61.10918 97.22837
#
# Poissons Ratio (x) = 0.05307 -0.01004
# Poissons Ratio (y) = 0.05308 -0.01003
# Poissons Ratio (z) = -0.00631 -0.00631
#
# Static dielectric constant tensor:
#      x y z
#    x 1.813750 0.000000 0.000000 
#    y 0.000000 1.813750 0.000000 
#    z 0.000000 0.000000 1.798870 
# 
# From -- ./inp_files/2888.got.cif
#   From: 2010.05.17/outbox.cif.g08.bks.cpg/sg130_2_cif.got.tgz:2888.got - 2010.05.20 12:17:35.
