data_PCOD9565622
_publ_section_title
;
Structure prediction by ZEFSAII (Michael W. Deem and Ramdas Pophale) SiO2 
 PCOD9565622
Probable space group: P 4/N C C
;
_chemical_formula_sum "Si O2"
_cell_formula_units_Z 88
_cell_length_a 14.376437
_cell_length_b 14.376437
_cell_length_c 21.762133
_cell_angle_alpha 90.000000
_cell_angle_beta 90.000000
_cell_angle_gamma 90.000000
_cell_volume 4497.839885
_symmetry_space_group_name_H-M "P 4/N C C"
_symmetry_group_IT_number 130
_symmetry_cell_setting 'tetragonal'
loop_
_space_group_symop_operation_xyz
x,y,z
1/2-y,x,z
1/2-x,1/2-y,z
y,1/2-x,z
1/2+x,-y,1/2-z
-x,1/2+y,1/2-z
1/2+y,1/2+x,1/2-z
-y,-x,1/2-z
-x,-y,-z
1/2+y,-x,-z
1/2+x,1/2+y,-z
-y,1/2+x,-z
1/2-x,y,1/2+z
x,1/2-y,1/2+z
1/2-y,1/2-x,1/2+z
y,x,1/2+z
loop_
_atom_site_type_symbol
_atom_site_label
_atom_site_fract_x
_atom_site_fract_y
_atom_site_fract_z
Si Si1 0.253363 0.948329 0.155092
Si Si2 0.249901 0.962237 0.868253
Si Si3 0.278878 0.095886 0.255862
Si Si4 0.436794 0.564987 0.416653
Si Si5 0.750000 0.250000 0.824057
Si Si6 0.413742 0.910915 0.445221
O O1 0.151228 0.962040 0.126855
O O2 0.254441 0.856797 0.200152
O O3 0.320439 0.925636 0.097601
O O4 0.285644 0.036822 0.193362
O O5 0.354060 0.992457 0.884708
O O6 0.257114 0.850471 0.857140
O O7 0.175710 0.968531 0.922536
O O8 0.214222 0.021436 0.810881
O O9 0.354462 0.177835 0.258976
O O10 0.525756 0.503336 0.431686
O O11 0.394388 0.596116 0.482396
#
# Coordination Sequence:
#
# PCOD9565622 Si02
#       6
#    16  16  16  16   8  16
#     4  10  20  37  56  79 113 145 181 230 275 327
#     4  10  20  37  56  79 113 145 181 230 275 327
#     4  11  24  39  56  78 108 153 198 229 266 318
#     4  10  20  34  56  84 111 144 184 227 281 336
#     4   8  20  33  53  80 102 132 173 213 272 334
#     4  10  20  34  56  84 111 144 184 227 281 336
#
# _framework density 19.564948000000001
#
# number of rings (size 3 to 8) (size 9 to 14) (size 15 to 20)
#    0.000    2.000    0.000    3.273    0.000    6.545 
#    0.000   14.545    0.000    0.000    0.000   15.273 
#    0.000    0.000    0.000    0.000    0.000    0.000 
#
# Total GULP energy -490177.990336 kJ/mol
# GULP energy per Si atom -5570.204436 kJ/mol
# Density = 1.952042 g / cm^3
# Si number density = 19.564948 Si / 1000 Ang^3
#
#
#
# Elastic Constant Matrix: (Units=GPa)
#
#
# Indices 1 2 3 4 5 6 
#
# 1 51.8304 8.0684 -2.8337 0.0000 0.0000 0.0000
# 2 8.0684 51.8304 -2.8337 0.0000 0.0000 0.0000
# 3 -2.8337 -2.8337 44.9143 0.0000 0.0000 0.0000
# 4 0.0000 0.0000 0.0000 25.5627 0.0000 0.0000
# 5 0.0000 0.0000 0.0000 0.0000 25.5627 0.0000
# 6 0.0000 0.0000 0.0000 0.0000 0.0000 13.1135
#
#
#
# Elastic Compliance Matrix: (Units=1/GPa)
#
#
# Indices 1 2 3 4 5 6 
#
# 1 0.019823 -0.003028 0.001060 0.000000 0.000000 0.000000
# 2 -0.003028 0.019823 0.001060 0.000000 0.000000 0.000000
# 3 0.001060 0.001060 0.022398 0.000000 0.000000 0.000000
# 4 0.000000 0.000000 0.000000 0.039119 0.000000 0.000000
# 5 0.000000 0.000000 0.000000 0.000000 0.039119 0.000000
# 6 0.000000 0.000000 0.000000 0.000000 0.000000 0.076258
#
#
# Mechanical properties :
#
#
# Convention : Reuss Voigt Hill
#
# Bulk Modulus (GPa) = 16.60388 17.04192 16.82290
# Shear Modulus (GPa) = 20.97019 22.59271 21.78145
#
# Velocity S-wave (km/s) = 3.27742 3.40185 3.34022
# Velocity P-wave (km/s) = 4.77776 4.91523 4.84698
#
# Compressibility (1/GPa) = 0.06022690
#
# Stress axis : x y z
#
# Youngs Moduli (GPa) = 50.44654 50.44654 44.64623
#
# Poissons Ratio (x) = 0.15275 -0.04731
# Poissons Ratio (y) = 0.15275 -0.04731
# Poissons Ratio (z) = -0.05345 -0.05345
#
# Static dielectric constant tensor:
#      x y z
#    x 1.702970 0.000000 0.000000 
#    y 0.000000 1.702970 0.000000 
#    z 0.000000 0.000000 1.722810 
# 
# From -- ./inp_files/4167.got.cif
#   From: 2010.05.17/outbox.cif.g08.bks.cpg/sg130_3_cif.got.tgz:4167.got - 2010.05.20 12:17:35.
