data_PCOD9565046
_publ_section_title
;
Structure prediction by ZEFSAII (Michael W. Deem and Ramdas Pophale) SiO2 
 PCOD9565046
Probable space group: P 4/M N C
;
_chemical_formula_sum "Si O2"
_cell_formula_units_Z 96
_cell_length_a 14.137813
_cell_length_b 14.137813
_cell_length_c 21.635799
_cell_angle_alpha 90.000000
_cell_angle_beta 90.000000
_cell_angle_gamma 90.000000
_cell_volume 4324.514963
_symmetry_space_group_name_H-M "P 4/M N C"
_symmetry_group_IT_number 128
_symmetry_cell_setting 'tetragonal'
loop_
_space_group_symop_operation_xyz
x,y,z
-y,x,z
-x,-y,z
y,-x,z
1/2+x,1/2-y,1/2-z
1/2-x,1/2+y,1/2-z
1/2+y,1/2+x,1/2-z
1/2-y,1/2-x,1/2-z
-x,-y,-z
y,-x,-z
x,y,-z
-y,x,-z
1/2-x,1/2+y,1/2+z
1/2+x,1/2-y,1/2+z
1/2-y,1/2-x,1/2+z
1/2+y,1/2+x,1/2+z
loop_
_atom_site_type_symbol
_atom_site_label
_atom_site_fract_x
_atom_site_fract_y
_atom_site_fract_z
Si Si1 0.709370 0.606607 0.883905
Si Si2 0.217975 0.377896 0.334593
Si Si3 0.220058 0.592035 0.070152
Si Si4 0.125053 0.913010 0.255311
Si Si5 0.083915 0.128511 0.073077
Si Si6 0.596482 0.938069 0.821100
O O1 0.804718 0.634939 0.846987
O O2 0.733239 0.512130 0.921335
O O3 0.667804 0.695544 0.921068
O O4 0.635408 0.589917 0.828732
O O5 0.288800 0.360835 0.277829
O O6 0.285730 0.368946 0.393244
O O7 0.176747 0.482831 0.328972
O O8 0.142633 0.602549 0.125730
O O9 0.180547 0.600240 0.000000
O O10 0.023289 0.873238 0.236980
O O11 0.973231 0.125406 0.089950
O O12 0.090701 0.137441 0.000000
O O13 0.599559 0.900442 0.750000
O O14 0.500000 0.000000 0.827379
#
# Coordination Sequence:
#
# PCOD9565046 Si02
#       6
#    16  16  16  16  16  16
#     4  12  26  48  69 103 140 189 245 300 355 415
#     4  12  25  41  70 104 139 185 227 294 356 441
#     4  12  28  50  75 105 141 190 247 300 352 422
#     4  11  24  43  71 104 142 182 237 299 362 427
#     4   9  20  40  63  92 136 181 226 284 353 426
#     4  11  26  49  73 103 145 186 226 284 366 437
#
# _framework density 22.199021999999999
#
# number of rings (size 3 to 8) (size 9 to 14) (size 15 to 20)
#    0.000    0.833    3.333    3.500    7.000    4.000 
#    0.000    0.833    0.000    0.000    0.000    0.000 
#    0.000    0.000    0.000    0.000    0.000    0.000 
#
# Total GULP energy -536805.585897 kJ/mol
# GULP energy per Si atom -5591.724853 kJ/mol
# Density = 2.214850 g / cm^3
# Si number density = 22.199022 Si / 1000 Ang^3
#
#
#
# Elastic Constant Matrix: (Units=GPa)
#
#
# Indices 1 2 3 4 5 6 
#
# 1 61.3370 22.2579 33.1873 0.0000 0.0000 0.0000
# 2 22.2579 61.3371 33.1874 0.0000 0.0000 0.0000
# 3 33.1873 33.1874 138.7940 0.0000 0.0000 0.0000
# 4 0.0000 0.0000 0.0000 16.0985 0.0000 0.0000
# 5 0.0000 0.0000 0.0000 0.0000 16.0974 0.0000
# 6 0.0000 0.0000 0.0000 0.0000 0.0000 23.5259
#
#
#
# Elastic Compliance Matrix: (Units=1/GPa)
#
#
# Indices 1 2 3 4 5 6 
#
# 1 0.020177 -0.005412 -0.003531 0.000000 0.000000 0.000000
# 2 -0.005412 0.020177 -0.003531 0.000000 0.000000 0.000000
# 3 -0.003531 -0.003531 0.008893 0.000000 0.000000 0.000000
# 4 0.000000 0.000000 0.000000 0.062117 0.000000 0.000000
# 5 0.000000 0.000000 0.000000 0.000000 0.062122 0.000000
# 6 0.000000 0.000000 0.000000 0.000000 0.000000 0.042506
#
#
# Mechanical properties :
#
#
# Convention : Reuss Voigt Hill
#
# Bulk Modulus (GPa) = 41.14841 48.74815 44.94828
# Shear Modulus (GPa) = 20.07703 22.66673 21.37188
#
# Velocity S-wave (km/s) = 3.01060 3.19888 3.10617
# Velocity P-wave (km/s) = 5.53727 5.97085 5.75814
#
# Compressibility (1/GPa) = 0.02430228
#
# Stress axis : x y z
#
# Youngs Moduli (GPa) = 49.56026 49.56027 112.44314
#
# Poissons Ratio (x) = 0.26820 0.39700
# Poissons Ratio (y) = 0.26820 0.39700
# Poissons Ratio (z) = 0.17498 0.17498
#
# Static dielectric constant tensor:
#      x y z
#    x 1.728220 0.000000 0.000000 
#    y 0.000000 1.728220 0.000000 
#    z 0.000000 0.000000 1.821510 
# 
# From -- ./inp_files/5747.got.cif
#   From: 2010.05.17/outbox.cif.g08.bks.cpg/sg128_3_cif.got.tgz:5747.got - 2010.05.20 12:07:25.
