data_PCOD9565293
_publ_section_title
;
Structure prediction by ZEFSAII (Michael W. Deem and Ramdas Pophale) SiO2 
 PCOD9565293
Probable space group: P 4/N M M
;
_chemical_formula_sum "Si O2"
_cell_formula_units_Z 64
_cell_length_a 12.655873
_cell_length_b 12.655873
_cell_length_c 24.587800
_cell_angle_alpha 90.000000
_cell_angle_beta 90.000000
_cell_angle_gamma 90.000000
_cell_volume 3938.255499
_symmetry_space_group_name_H-M "P 4/N M M"
_symmetry_group_IT_number 129
_symmetry_cell_setting 'tetragonal'
loop_
_space_group_symop_operation_xyz
x,y,z
1/2-y,x,z
1/2-x,1/2-y,z
y,1/2-x,z
1/2+x,-y,-z
-x,1/2+y,-z
1/2+y,1/2+x,-z
-y,-x,-z
-x,-y,-z
1/2+y,-x,-z
1/2+x,1/2+y,-z
-y,1/2+x,-z
1/2-x,y,z
x,1/2-y,z
1/2-y,1/2-x,z
y,x,z
loop_
_atom_site_type_symbol
_atom_site_label
_atom_site_fract_x
_atom_site_fract_y
_atom_site_fract_z
Si Si1 0.123720 0.948381 0.940102
Si Si2 0.121525 0.750000 0.740777
Si Si3 0.372674 0.953158 0.670950
Si Si4 0.048029 0.626642 0.557154
Si Si5 0.250000 0.877977 0.134819
O O1 0.250000 0.967565 0.936020
O O2 0.092438 0.856111 0.897660
O O3 0.096813 0.903188 0.000000
O O4 0.052820 0.052820 0.931691
O O5 0.250000 0.750000 0.740933
O O6 0.090554 0.644868 0.708194
O O7 0.084599 0.750000 0.803000
O O8 0.250000 0.974915 0.682159
O O9 0.386356 0.917291 0.608306
O O10 0.446212 0.053789 0.680322
O O11 0.105448 0.605448 0.500000
O O12 0.029953 0.750000 0.564576
O O13 0.939712 0.560289 0.555873
O O14 0.250000 0.750000 0.135720
#
# Coordination Sequence:
#
# PCOD9565293 Si02
#       5
#    16   8  16  16   8
#     4  10  19  32  52  78 108 140 175 217 262 311
#     4   9  18  34  54  75 101 137 177 218 255 300
#     4  10  20  34  53  77 106 139 176 220 267 315
#     4  10  20  33  51  76 103 135 175 219 269 321
#     4   9  18  32  54  77 101 137 177 216 255 302
#
# _framework density 16.250851000000001
#
# number of rings (size 3 to 8) (size 9 to 14) (size 15 to 20)
#    0.000    2.250    2.500    0.750    0.000    3.000 
#    0.000    0.000    0.000    5.250    0.000    8.750 
#    0.000    0.000    0.000    0.000    0.000    0.000 
#
# Total GULP energy -356817.506015 kJ/mol
# GULP energy per Si atom -5575.273531 kJ/mol
# Density = 1.621386 g / cm^3
# Si number density = 16.250851 Si / 1000 Ang^3
#
#
#
# Elastic Constant Matrix: (Units=GPa)
#
#
# Indices 1 2 3 4 5 6 
#
# 1 112.7094 58.8574 41.3525 0.0000 0.0000 0.0000
# 2 58.8574 112.7094 41.3526 0.0000 0.0000 0.0000
# 3 41.3525 41.3526 117.3040 0.0000 0.0000 0.0000
# 4 0.0000 0.0000 0.0000 10.2932 0.0000 0.0000
# 5 0.0000 0.0000 0.0000 0.0000 10.2936 0.0000
# 6 0.0000 0.0000 0.0000 0.0000 0.0000 9.7979
#
#
#
# Elastic Compliance Matrix: (Units=1/GPa)
#
#
# Indices 1 2 3 4 5 6 
#
# 1 0.012796 -0.005774 -0.002475 0.000000 0.000000 0.000000
# 2 -0.005774 0.012796 -0.002475 0.000000 0.000000 0.000000
# 3 -0.002475 -0.002475 0.010270 0.000000 0.000000 0.000000
# 4 0.000000 0.000000 0.000000 0.097152 0.000000 0.000000
# 5 0.000000 0.000000 0.000000 0.000000 0.097147 0.000000
# 6 0.000000 0.000000 0.000000 0.000000 0.000000 0.102062
#
#
# Mechanical properties :
#
#
# Convention : Reuss Voigt Hill
#
# Bulk Modulus (GPa) = 69.38482 69.53866 69.46174
# Shear Modulus (GPa) = 13.94794 19.48764 16.71779
#
# Velocity S-wave (km/s) = 2.93284 3.46667 3.21087
# Velocity P-wave (km/s) = 7.36597 7.67512 7.52213
#
# Compressibility (1/GPa) = 0.01441237
#
# Stress axis : x y z
#
# Youngs Moduli (GPa) = 78.15150 78.15134 97.36973
#
# Poissons Ratio (x) = 0.45123 0.24103
# Poissons Ratio (y) = 0.45123 0.24103
# Poissons Ratio (z) = 0.19345 0.19346
#
# Static dielectric constant tensor:
#      x y z
#    x 1.523960 0.000000 0.000000 
#    y 0.000000 1.523960 0.000000 
#    z 0.000000 0.000000 1.553440 
# 
# From -- ./inp_files/6904.got.cif
#   From: 2010.05.17/outbox.cif.g08.bks.cpg/sg129_4_cif.got.tgz:6904.got - 2010.05.20 12:12:06.
