data_PCOD9566652
_publ_section_title
;
Structure prediction by ZEFSAII (Michael W. Deem and Ramdas Pophale) SiO2 
 PCOD9566652
Probable space group: P 42/M M C
;
_chemical_formula_sum "Si O2"
_cell_formula_units_Z 34
_cell_length_a 7.769800
_cell_length_b 7.769800
_cell_length_c 28.246323
_cell_angle_alpha 90.000000
_cell_angle_beta 90.000000
_cell_angle_gamma 90.000000
_cell_volume 1705.224645
_symmetry_space_group_name_H-M "P 42/M M C"
_symmetry_group_IT_number 131
_symmetry_cell_setting 'tetragonal'
loop_
_space_group_symop_operation_xyz
x,y,z
-x,-y,z
-y,x,1/2+z
y,-x,1/2+z
-x,y,-z
x,-y,-z
y,x,1/2-z
-y,-x,1/2-z
-x,-y,-z
x,y,-z
y,-x,1/2-z
-y,x,1/2-z
x,-y,z
-x,y,z
-y,-x,1/2+z
y,x,1/2+z
loop_
_atom_site_type_symbol
_atom_site_label
_atom_site_fract_x
_atom_site_fract_y
_atom_site_fract_z
Si Si1 0.000000 0.000000 0.000000
Si Si2 0.692454 0.000000 0.078399
Si Si3 0.692586 0.791775 0.646182
Si Si4 0.794748 0.205253 0.750000
O O1 0.152696 0.000000 0.041096
O O2 0.713437 0.165147 0.112382
O O3 0.500000 0.000000 0.057804
O O4 0.500000 0.753563 0.629712
O O5 0.713741 0.735498 0.700766
O O6 0.716102 0.000000 0.646096
O O7 0.000000 0.233880 0.745728
#
# Coordination Sequence:
#
# PCOD9566652 Si02
#       4
#     2   8  16   8
#     4  12  26  52  74  92 124 158 210 276 346 392
#     4  12  25  45  72  97 123 162 213 269 327 392
#     4  10  20  38  65  96 135 178 212 256 315 372
#     4   9  16  30  58  95 136 182 221 251 298 368
#
# _framework density 19.938723
#
# number of rings (size 3 to 8) (size 9 to 14) (size 15 to 20)
#    0.000    1.647    4.706    0.353    0.000    2.824 
#    0.000    2.353    0.000    2.824    0.000    0.000 
#    0.000    0.000    0.000    0.000    0.000    0.000 
#
# Total GULP energy -189447.725232 kJ/mol
# GULP energy per Si atom -5571.991919 kJ/mol
# Density = 1.989334 g / cm^3
# Si number density = 19.938723 Si / 1000 Ang^3
#
#
#
# Elastic Constant Matrix: (Units=GPa)
#
#
# Indices 1 2 3 4 5 6 
#
# 1 98.8281 63.9605 58.4024 0.0000 0.0000 0.0000
# 2 63.9605 98.8271 58.4024 0.0000 0.0000 0.0000
# 3 58.4024 58.4024 131.8933 0.0000 0.0000 0.0000
# 4 0.0000 0.0000 0.0000 -7.4215 0.0000 0.0000
# 5 0.0000 0.0000 0.0000 0.0000 -7.4213 0.0000
# 6 0.0000 0.0000 0.0000 0.0000 0.0000 2.7346
#
#
#
# Elastic Compliance Matrix: (Units=1/GPa)
#
#
# Indices 1 2 3 4 5 6 
#
# 1 0.018842 -0.009838 -0.003987 0.000000 0.000000 0.000000
# 2 -0.009838 0.018842 -0.003987 0.000000 0.000000 0.000000
# 3 -0.003987 -0.003987 0.011113 0.000000 0.000000 0.000000
# 4 0.000000 0.000000 0.000000 -0.134745 0.000000 0.000000
# 5 0.000000 0.000000 0.000000 0.000000 -0.134748 0.000000
# 6 0.000000 0.000000 0.000000 0.000000 0.000000 0.365684
#
#
# Mechanical properties :
#
#
# Convention : Reuss Voigt Hill
#
# Bulk Modulus (GPa) = 75.91515 76.78655 76.35085
# Shear Modulus (GPa) = 27.02660 7.49726 17.26193
#
# Velocity S-wave (km/s) = 3.68568 1.94121 2.94555
# Velocity P-wave (km/s) = 7.50128 6.60449 7.06713
#
# Compressibility (1/GPa) = 0.01317260
#
# Stress axis : x y z
#
# Youngs Moduli (GPa) = 53.07348 53.07271 89.98800
#
# Poissons Ratio (x) = 0.52215 0.35876
# Poissons Ratio (y) = 0.52216 0.35877
# Poissons Ratio (z) = 0.21159 0.21159
#
# Static dielectric constant tensor:
#      x y z
#    x 1.714480 0.000000 0.000000 
#    y 0.000000 1.714480 0.000000 
#    z 0.000000 0.000000 1.661600 
# 
# From -- ./inp_files/10293.got.cif
#   From: 2010.05.17/outbox.cif.g08.bks.cpg/sg131_6_cif.got.tgz:10293.got - 2010.05.20 12:21:01.
