data_PCOD9566593
_publ_section_title
;
Structure prediction by ZEFSAII (Michael W. Deem and Ramdas Pophale) SiO2 
 PCOD9566593
Probable space group: P 42/M M C
;
_chemical_formula_sum "Si O2"
_cell_formula_units_Z 72
_cell_length_a 21.205647
_cell_length_b 21.205647
_cell_length_c 8.444012
_cell_angle_alpha 90.000000
_cell_angle_beta 90.000000
_cell_angle_gamma 90.000000
_cell_volume 3797.098796
_symmetry_space_group_name_H-M "P 42/M M C"
_symmetry_group_IT_number 131
_symmetry_cell_setting 'tetragonal'
loop_
_space_group_symop_operation_xyz
x,y,z
-x,-y,z
-y,x,1/2+z
y,-x,1/2+z
-x,y,-z
x,-y,-z
y,x,1/2-z
-y,-x,1/2-z
-x,-y,-z
x,y,-z
y,-x,1/2-z
-y,x,1/2-z
x,-y,z
-x,y,z
-y,-x,1/2+z
y,x,1/2+z
loop_
_atom_site_type_symbol
_atom_site_label
_atom_site_fract_x
_atom_site_fract_y
_atom_site_fract_z
Si Si1 0.500000 0.926440 0.311323
Si Si2 0.833715 0.070410 0.309588
Si Si3 0.428236 0.674562 0.808619
Si Si4 0.730133 0.172957 0.690361
Si Si5 0.179482 0.407544 0.685971
O O1 0.500000 0.931067 0.500000
O O2 0.442885 0.880598 0.260006
O O3 0.500000 0.000000 0.251241
O O4 0.897097 0.102904 0.250000
O O5 0.835102 0.069342 0.500000
O O6 0.776152 0.115621 0.264228
O O7 0.826047 0.000000 0.249176
O O8 0.373428 0.626573 0.750000
O O9 0.500000 0.654224 0.764550
O O10 0.421527 0.748432 0.755552
O O11 0.424250 0.675158 0.000000
O O12 0.764301 0.235700 0.750000
O O13 0.722358 0.173932 0.500000
O O14 0.664932 0.168082 0.778340
O O15 0.179758 0.422291 0.500000
#
# Coordination Sequence:
#
# PCOD9566593 Si02
#       5
#     8  16  16  16  16
#     4  11  25  43  63  89 120 155 198 245 295 358
#     4   9  19  35  53  75 107 145 184 232 288 345
#     4  10  22  40  60  87 122 160 202 250 300 355
#     4  10  20  35  56  84 115 150 194 243 293 349
#     4  11  22  40  63  87 120 157 197 247 300 359
#
# _framework density 18.961845
#
# number of rings (size 3 to 8) (size 9 to 14) (size 15 to 20)
#    0.000    1.889    1.111    2.333    0.000    7.556 
#    0.000    4.444    0.000    0.000    0.000    0.000 
#    0.000    0.000    0.000    0.000    0.000    0.000 
#
# Total GULP energy -401480.263526 kJ/mol
# GULP energy per Si atom -5576.114771 kJ/mol
# Density = 1.891869 g / cm^3
# Si number density = 18.961845 Si / 1000 Ang^3
#
#
#
# Elastic Constant Matrix: (Units=GPa)
#
#
# Indices 1 2 3 4 5 6 
#
# 1 86.0904 133.0236 22.3243 0.0000 0.0000 0.0000
# 2 133.0236 86.0843 22.2632 0.0000 0.0000 0.0000
# 3 22.3243 22.2632 25.2818 0.0000 0.0000 0.0000
# 4 0.0000 0.0000 0.0000 33.8314 0.0000 0.0000
# 5 0.0000 0.0000 0.0000 0.0000 33.8367 0.0000
# 6 0.0000 0.0000 0.0000 0.0000 0.0000 -2.5410
#
#
#
# Elastic Compliance Matrix: (Units=1/GPa)
#
#
# Indices 1 2 3 4 5 6 
#
# 1 -0.007878 0.013434 -0.004874 0.000000 0.000000 0.000000
# 2 0.013434 -0.007866 -0.004936 0.000000 0.000000 0.000000
# 3 -0.004874 -0.004936 0.048204 0.000000 0.000000 0.000000
# 4 0.000000 0.000000 0.000000 0.029558 0.000000 0.000000
# 5 0.000000 0.000000 0.000000 0.000000 0.029554 0.000000
# 6 0.000000 0.000000 0.000000 0.000000 0.000000 -0.393542
#
#
# Mechanical properties :
#
#
# Convention : Reuss Voigt Hill
#
# Bulk Modulus (GPa) = 25.18295 61.40873 43.29584
# Shear Modulus (GPa) = -16.89289 14.34845 -1.27222
#
# Velocity S-wave (km/s) = -2.98801 2.75380 -0.82000
# Velocity P-wave (km/s) = 1.18549 6.52434 4.68894
#
# Compressibility (1/GPa) = 0.03970940
#
# Stress axis : x y z
#
# Youngs Moduli (GPa) = -126.93940 -127.13362 20.74528
#
# Poissons Ratio (x) = 1.70787 0.10110
# Poissons Ratio (y) = 1.70527 0.10239
# Poissons Ratio (z) = -0.61864 -0.62748
#
# Static dielectric constant tensor:
#      x y z
#    x 1.649580 0.000000 0.000000 
#    y 0.000000 1.649570 0.000000 
#    z 0.000000 0.000000 1.659410 
# 
# From -- ./inp_files/1790.got.cif
#   From: 2010.05.17/outbox.cif.g08.bks.cpg/sg131_1_cif.got.tgz:1790.got - 2010.05.20 12:21:01.
