data_PCOD9566719
_publ_section_title
;
Structure prediction by ZEFSAII (Michael W. Deem and Ramdas Pophale) SiO2 
 PCOD9566719
Probable space group: P 42/M M C
;
_chemical_formula_sum "Si O2"
_cell_formula_units_Z 96
_cell_length_a 23.986302
_cell_length_b 23.986302
_cell_length_c 8.679565
_cell_angle_alpha 90.000000
_cell_angle_beta 90.000000
_cell_angle_gamma 90.000000
_cell_volume 4993.724220
_symmetry_space_group_name_H-M "P 42/M M C"
_symmetry_group_IT_number 131
_symmetry_cell_setting 'tetragonal'
loop_
_space_group_symop_operation_xyz
x,y,z
-x,-y,z
-y,x,1/2+z
y,-x,1/2+z
-x,y,-z
x,-y,-z
y,x,1/2-z
-y,-x,1/2-z
-x,-y,-z
x,y,-z
y,-x,1/2-z
-y,x,1/2-z
x,-y,z
-x,y,z
-y,-x,1/2+z
y,x,1/2+z
loop_
_atom_site_type_symbol
_atom_site_label
_atom_site_fract_x
_atom_site_fract_y
_atom_site_fract_z
Si Si1 0.137277 0.222644 0.324036
Si Si2 0.287475 0.379108 0.312362
Si Si3 0.735602 0.500000 0.186043
Si Si4 0.827208 0.669703 0.176960
Si Si5 0.148090 0.938915 0.317296
Si Si6 0.500000 0.860905 0.823112
Si Si7 0.406844 0.065277 0.675905
O O1 0.181774 0.181774 0.250000
O O2 0.127961 0.208922 0.500000
O O3 0.163326 0.281877 0.298138
O O4 0.081164 0.209396 0.232224
O O5 0.335635 0.335635 0.250000
O O6 0.285901 0.376107 0.500000
O O7 0.292281 0.443786 0.256765
O O8 0.227052 0.363011 0.237788
O O9 0.802747 0.500000 0.227146
O O10 0.730885 0.500000 0.000000
O O11 0.888428 0.641662 0.171886
O O12 0.815314 0.688066 0.000000
O O13 0.102937 0.897064 0.250000
O O14 0.144600 0.938144 0.500000
O O15 0.136863 0.000000 0.256740
O O16 0.550751 0.902298 0.785726
O O17 0.500000 0.843317 0.000000
O O18 0.429422 0.063923 0.500000
O O19 0.395120 0.000000 0.716614
#
# Coordination Sequence:
#
# PCOD9566719 Si02
#       7
#    16  16   8  16  16   8  16
#     4  11  22  37  57  80 109 145 187 237 292 356
#     4  12  25  43  68 101 136 173 217 269 325 387
#     4  12  24  43  69  99 135 177 219 270 327 388
#     4  11  22  38  60  87 123 165 210 262 315 372
#     4  10  21  37  57  80 106 138 179 229 290 362
#     4  12  23  37  60  89 123 165 211 266 317 371
#     4  10  22  39  59  83 117 165 216 262 314 373
#
# _framework density 19.224129000000001
#
# number of rings (size 3 to 8) (size 9 to 14) (size 15 to 20)
#    0.000    1.000    1.667    7.250    0.000    4.167 
#    0.000    2.500    0.000    0.250    0.000    1.750 
#    0.000    0.000    0.000    0.000    0.000    0.000 
#
# Total GULP energy -534765.236838 kJ/mol
# GULP energy per Si atom -5570.471217 kJ/mol
# Density = 1.918037 g / cm^3
# Si number density = 19.224129 Si / 1000 Ang^3
#
#
#
# Elastic Constant Matrix: (Units=GPa)
#
#
# Indices 1 2 3 4 5 6 
#
# 1 86.2419 47.9742 16.4840 0.0000 0.0000 0.0000
# 2 47.9742 86.2456 16.4862 0.0000 0.0000 0.0000
# 3 16.4840 16.4862 88.9517 0.0000 0.0000 0.0000
# 4 0.0000 0.0000 0.0000 32.8791 0.0000 0.0000
# 5 0.0000 0.0000 0.0000 0.0000 32.8788 0.0000
# 6 0.0000 0.0000 0.0000 0.0000 0.0000 22.7589
#
#
#
# Elastic Compliance Matrix: (Units=1/GPa)
#
#
# Indices 1 2 3 4 5 6 
#
# 1 0.016968 -0.009162 -0.001446 0.000000 0.000000 0.000000
# 2 -0.009162 0.016968 -0.001447 0.000000 0.000000 0.000000
# 3 -0.001446 -0.001447 0.011778 0.000000 0.000000 0.000000
# 4 0.000000 0.000000 0.000000 0.030414 0.000000 0.000000
# 5 0.000000 0.000000 0.000000 0.000000 0.030415 0.000000
# 6 0.000000 0.000000 0.000000 0.000000 0.000000 0.043939
#
#
# Mechanical properties :
#
#
# Convention : Reuss Voigt Hill
#
# Bulk Modulus (GPa) = 46.28870 47.03644 46.66257
# Shear Modulus (GPa) = 27.50352 29.73635 28.61994
#
# Velocity S-wave (km/s) = 3.78653 3.93724 3.86262
# Velocity P-wave (km/s) = 6.57631 6.72232 6.64972
#
# Compressibility (1/GPa) = 0.02160354
#
# Stress axis : x y z
#
# Youngs Moduli (GPa) = 58.93281 58.93484 84.90221
#
# Poissons Ratio (x) = 0.53998 0.12280
# Poissons Ratio (y) = 0.53996 0.12285
# Poissons Ratio (z) = 0.08524 0.08527
#
# Static dielectric constant tensor:
#      x y z
#    x 1.822470 0.000000 0.000000 
#    y 0.000000 1.822440 0.000000 
#    z 0.000000 0.000000 1.642960 
# 
# From -- ./inp_files/2374.got.cif
#   From: 2010.05.17/outbox.cif.g08.bks.cpg/sg131_2_cif.got.tgz:2374.got - 2010.05.20 12:21:01.
