data_PCOD9566322
_publ_section_title
;
Structure prediction by ZEFSAII (Michael W. Deem and Ramdas Pophale) SiO2 
 PCOD9566322
Probable space group: P 42/M M C
;
_chemical_formula_sum "Si O2"
_cell_formula_units_Z 54
_cell_length_a 10.897015
_cell_length_b 10.897015
_cell_length_c 23.096434
_cell_angle_alpha 90.000000
_cell_angle_beta 90.000000
_cell_angle_gamma 90.000000
_cell_volume 2742.584575
_symmetry_space_group_name_H-M "P 42/M M C"
_symmetry_group_IT_number 131
_symmetry_cell_setting 'tetragonal'
loop_
_space_group_symop_operation_xyz
x,y,z
-x,-y,z
-y,x,1/2+z
y,-x,1/2+z
-x,y,-z
x,-y,-z
y,x,1/2-z
-y,-x,1/2-z
-x,-y,-z
x,y,-z
y,-x,1/2-z
-y,x,1/2-z
x,-y,z
-x,y,z
-y,-x,1/2+z
y,x,1/2+z
loop_
_atom_site_type_symbol
_atom_site_label
_atom_site_fract_x
_atom_site_fract_y
_atom_site_fract_z
Si Si1 0.500000 0.231112 0.805393
Si Si2 0.252613 0.743645 0.625561
Si Si3 0.000000 0.859984 0.890436
Si Si4 0.638671 0.274351 0.500000
Si Si5 0.500000 0.500000 0.750000
Si Si6 0.500000 0.856545 0.323670
Si Si7 0.685825 0.000000 0.500000
O O1 0.623787 0.206496 0.841033
O O2 0.500000 0.376144 0.788034
O O3 0.500000 0.157873 0.745333
O O4 0.169360 0.865484 0.636201
O O5 0.282412 0.705606 0.558684
O O6 0.382518 0.787935 0.651065
O O7 0.000000 0.770267 0.944353
O O8 0.000000 0.000000 0.908030
O O9 0.500000 0.330533 0.500000
O O10 0.619422 0.127974 0.500000
O O11 0.500000 0.000000 0.340758
#
# Coordination Sequence:
#
# PCOD9566322 Si02
#       7
#     8  16   8   8   2   8   4
#     4  12  24  41  62  86 126 168 216 251 314 382
#     4  11  22  39  62  92 125 165 204 260 320 385
#     4  10  21  38  62  88 124 156 206 256 311 369
#     4  10  19  32  57  92 128 157 198 261 323 380
#     4  12  20  36  60  82 104 164 196 244 290 376
#     4  12  22  39  64  88 121 163 215 258 311 374
#     4   8  18  32  58  86 116 167 197 240 312 384
#
# _framework density 19.689456
#
# number of rings (size 3 to 8) (size 9 to 14) (size 15 to 20)
#    0.000    1.185    5.926    0.444    0.000    1.778 
#    0.000    0.741    0.000    0.000    0.000    7.259 
#    0.000    0.000    0.000    0.000    0.000    0.000 
#
# Total GULP energy -301060.821968 kJ/mol
# GULP energy per Si atom -5575.200407 kJ/mol
# Density = 1.964464 g / cm^3
# Si number density = 19.689456 Si / 1000 Ang^3
#
#
#
# Elastic Constant Matrix: (Units=GPa)
#
#
# Indices 1 2 3 4 5 6 
#
# 1 85.9817 -2.1792 16.7325 0.0000 0.0000 0.0000
# 2 -2.1792 85.9817 16.7325 0.0000 0.0000 0.0000
# 3 16.7325 16.7325 106.8337 0.0000 0.0000 0.0000
# 4 0.0000 0.0000 0.0000 -1.0140 0.0000 0.0000
# 5 0.0000 0.0000 0.0000 0.0000 -1.0140 0.0000
# 6 0.0000 0.0000 0.0000 0.0000 0.0000 -0.6058
#
#
#
# Elastic Compliance Matrix: (Units=1/GPa)
#
#
# Indices 1 2 3 4 5 6 
#
# 1 0.012036 0.000693 -0.001994 0.000000 0.000000 0.000000
# 2 0.000693 0.012036 -0.001994 0.000000 0.000000 0.000000
# 3 -0.001994 -0.001994 0.009985 0.000000 0.000000 0.000000
# 4 0.000000 0.000000 0.000000 -0.986208 0.000000 0.000000
# 5 0.000000 0.000000 0.000000 0.000000 -0.986208 0.000000
# 6 0.000000 0.000000 0.000000 0.000000 0.000000 -1.650738
#
#
# Mechanical properties :
#
#
# Convention : Reuss Voigt Hill
#
# Bulk Modulus (GPa) = 36.40574 37.92985 37.16780
# Shear Modulus (GPa) = -1.39925 15.97401 7.28738
#
# Velocity S-wave (km/s) = -0.84392 2.85142 1.92593
# Velocity P-wave (km/s) = 4.19291 5.49060 4.88504
#
# Compressibility (1/GPa) = 0.02746819
#
# Stress axis : x y z
#
# Youngs Moduli (GPa) = 83.08467 83.08467 100.15188
#
# Poissons Ratio (x) = -0.05758 0.19967
# Poissons Ratio (y) = -0.05758 0.19967
# Poissons Ratio (z) = 0.16564 0.16564
#
# Static dielectric constant tensor:
#      x y z
#    x 1.689120 0.000000 0.000000 
#    y 0.000000 1.689120 0.000000 
#    z 0.000000 0.000000 1.714350 
# 
# From -- ./inp_files/9140.got.cif
#   From: 2010.05.17/outbox.cif.g08.bks.cpg/sg131_5_cif.got.tgz:9140.got - 2010.05.20 12:21:01.
