data_PCOD9566650
_publ_section_title
;
Structure prediction by ZEFSAII (Michael W. Deem and Ramdas Pophale) SiO2 
 PCOD9566650
Probable space group: P 42/M M C
;
_chemical_formula_sum "Si O2"
_cell_formula_units_Z 72
_cell_length_a 11.699708
_cell_length_b 11.699708
_cell_length_c 29.957418
_cell_angle_alpha 90.000000
_cell_angle_beta 90.000000
_cell_angle_gamma 90.000000
_cell_volume 4100.666260
_symmetry_space_group_name_H-M "P 42/M M C"
_symmetry_group_IT_number 131
_symmetry_cell_setting 'tetragonal'
loop_
_space_group_symop_operation_xyz
x,y,z
-x,-y,z
-y,x,1/2+z
y,-x,1/2+z
-x,y,-z
x,-y,-z
y,x,1/2-z
-y,-x,1/2-z
-x,-y,-z
x,y,-z
y,-x,1/2-z
-y,x,1/2-z
x,-y,z
-x,y,z
-y,-x,1/2+z
y,x,1/2+z
loop_
_atom_site_type_symbol
_atom_site_label
_atom_site_fract_x
_atom_site_fract_y
_atom_site_fract_z
Si Si1 0.784700 0.225596 0.053207
Si Si2 0.251890 0.366041 0.708376
Si Si3 0.376654 0.000000 0.446139
Si Si4 0.630589 0.363187 0.615557
Si Si5 0.139970 0.000000 0.103726
Si Si6 0.000000 0.634726 0.330758
O O1 0.885667 0.312400 0.065168
O O2 0.677198 0.279215 0.078491
O O3 0.830787 0.108540 0.073302
O O4 0.768604 0.218818 0.000000
O O5 0.291185 0.291185 0.750000
O O6 0.279423 0.500000 0.717022
O O7 0.320852 0.328592 0.663971
O O8 0.117388 0.359306 0.697108
O O9 0.500000 0.000000 0.425413
O O10 0.383679 0.000000 0.500000
O O11 0.627912 0.500000 0.615387
O O12 0.500000 0.322672 0.607919
O O13 0.246982 0.000000 0.139645
O O14 0.000000 0.000000 0.115746
O O15 0.000000 0.500000 0.350416
#
# Coordination Sequence:
#
# PCOD9566650 Si02
#       6
#    16  16   8  16   8   8
#     4  11  22  36  57  84 117 160 207 250 302 363
#     4  10  20  38  64  90 117 154 198 245 303 370
#     4   9  18  33  52  75 108 150 194 242 297 350
#     4  10  21  37  59  88 121 157 200 253 311 369
#     4  12  23  40  64  89 121 165 217 264 308 357
#     4  10  22  43  66  88 124 169 201 245 315 381
#
# _framework density 17.558121
#
# number of rings (size 3 to 8) (size 9 to 14) (size 15 to 20)
#    0.000    1.667    3.333    1.667    0.000    3.333 
#    2.000    2.222    0.000    3.333    0.000    0.000 
#    0.000    0.000    0.000    0.000    0.000    0.000 
#
# Total GULP energy -400815.761906 kJ/mol
# GULP energy per Si atom -5566.885582 kJ/mol
# Density = 1.751816 g / cm^3
# Si number density = 17.558121 Si / 1000 Ang^3
#
#
#
# Elastic Constant Matrix: (Units=GPa)
#
#
# Indices 1 2 3 4 5 6 
#
# 1 102.5067 41.0177 49.0922 0.0000 0.0000 0.0000
# 2 41.0177 102.5067 49.0922 0.0000 0.0000 0.0000
# 3 49.0922 49.0922 89.8964 0.0000 0.0000 0.0000
# 4 0.0000 0.0000 0.0000 31.6860 0.0000 0.0000
# 5 0.0000 0.0000 0.0000 0.0000 31.6860 0.0000
# 6 0.0000 0.0000 0.0000 0.0000 0.0000 38.7384
#
#
#
# Elastic Compliance Matrix: (Units=1/GPa)
#
#
# Indices 1 2 3 4 5 6 
#
# 1 0.013693 -0.002570 -0.006074 0.000000 0.000000 0.000000
# 2 -0.002570 0.013693 -0.006074 0.000000 0.000000 0.000000
# 3 -0.006074 -0.006074 0.017758 0.000000 0.000000 0.000000
# 4 0.000000 0.000000 0.000000 0.031560 0.000000 0.000000
# 5 0.000000 0.000000 0.000000 0.000000 0.031560 0.000000
# 6 0.000000 0.000000 0.000000 0.000000 0.000000 0.025814
#
#
# Mechanical properties :
#
#
# Convention : Reuss Voigt Hill
#
# Bulk Modulus (GPa) = 63.66553 63.70154 63.68353
# Shear Modulus (GPa) = 29.62969 30.80260 30.21615
#
# Velocity S-wave (km/s) = 4.11240 4.19301 4.15290
# Velocity P-wave (km/s) = 7.67383 7.73310 7.70353
#
# Compressibility (1/GPa) = 0.01570709
#
# Stress axis : x y z
#
# Youngs Moduli (GPa) = 73.03068 73.03068 56.31271
#
# Poissons Ratio (x) = 0.18770 0.34205
# Poissons Ratio (y) = 0.18770 0.34205
# Poissons Ratio (z) = 0.44359 0.44359
#
# Static dielectric constant tensor:
#      x y z
#    x 1.624290 0.000000 0.000000 
#    y 0.000000 1.624290 0.000000 
#    z 0.000000 0.000000 1.576110 
# 
# From -- ./inp_files/12186.got.cif
#   From: 2010.05.17/outbox.cif.g08.bks.cpg/sg131_7_cif.got.tgz:12186.got - 2010.05.20 12:21:01.
