data_PCOD9566361
_publ_section_title
;
Structure prediction by ZEFSAII (Michael W. Deem and Ramdas Pophale) SiO2 
 PCOD9566361
Probable space group: P 42/M M C
;
_chemical_formula_sum "Si O2"
_cell_formula_units_Z 48
_cell_length_a 13.444941
_cell_length_b 13.444941
_cell_length_c 14.547917
_cell_angle_alpha 90.000000
_cell_angle_beta 90.000000
_cell_angle_gamma 90.000000
_cell_volume 2629.775144
_symmetry_space_group_name_H-M "P 42/M M C"
_symmetry_group_IT_number 131
_symmetry_cell_setting 'tetragonal'
loop_
_space_group_symop_operation_xyz
x,y,z
-x,-y,z
-y,x,1/2+z
y,-x,1/2+z
-x,y,-z
x,-y,-z
y,x,1/2-z
-y,-x,1/2-z
-x,-y,-z
x,y,-z
y,-x,1/2-z
-y,x,1/2-z
x,-y,z
-x,y,z
-y,-x,1/2+z
y,x,1/2+z
loop_
_atom_site_type_symbol
_atom_site_label
_atom_site_fract_x
_atom_site_fract_y
_atom_site_fract_z
Si Si1 0.882974 0.117027 0.750000
Si Si2 0.000000 0.387085 0.888532
Si Si3 0.261202 0.195798 0.610536
Si Si4 0.614844 0.611514 0.611649
O O1 0.822803 0.158679 0.837089
O O2 0.000000 0.132878 0.764167
O O3 0.898942 0.329983 0.863379
O O4 0.000000 0.500000 0.854165
O O5 0.000000 0.390703 0.000000
O O6 0.249629 0.195668 0.500000
O O7 0.314591 0.298126 0.639057
O O8 0.614621 0.611785 0.500000
O O9 0.644768 0.500000 0.640741
O O10 0.500000 0.627840 0.639641
#
# Coordination Sequence:
#
# PCOD9566361 Si02
#       4
#     8   8  16  16
#     4  11  24  40  56  75 102 134 180 237 280 322
#     4   9  16  28  51  83 110 133 169 221 277 323
#     4  10  19  34  56  80 108 142 178 219 271 324
#     4   8  14  27  51  82 113 145 177 210 256 318
#
# _framework density 18.252510999999998
#
# number of rings (size 3 to 8) (size 9 to 14) (size 15 to 20)
#    0.000    2.667    1.667    2.000    0.000    4.667 
#    0.000    5.000    0.000    2.000    0.000    4.667 
#    0.000    0.000    0.000    0.000    0.000    0.000 
#
# Total GULP energy -267663.429699 kJ/mol
# GULP energy per Si atom -5576.321452 kJ/mol
# Density = 1.821097 g / cm^3
# Si number density = 18.252511 Si / 1000 Ang^3
#
#
#
# Elastic Constant Matrix: (Units=GPa)
#
#
# Indices 1 2 3 4 5 6 
#
# 1 121.0640 62.6424 26.2990 0.0000 0.0000 0.0000
# 2 62.6424 121.0635 26.2990 0.0000 0.0000 0.0000
# 3 26.2990 26.2990 60.7249 0.0000 0.0000 0.0000
# 4 0.0000 0.0000 0.0000 -16.5520 0.0000 0.0000
# 5 0.0000 0.0000 0.0000 0.0000 -16.5527 0.0000
# 6 0.0000 0.0000 0.0000 0.0000 0.0000 25.8208
#
#
#
# Elastic Compliance Matrix: (Units=1/GPa)
#
#
# Indices 1 2 3 4 5 6 
#
# 1 0.011665 -0.005452 -0.002691 0.000000 0.000000 0.000000
# 2 -0.005452 0.011666 -0.002691 0.000000 0.000000 0.000000
# 3 -0.002691 -0.002691 0.018799 0.000000 0.000000 0.000000
# 4 0.000000 0.000000 0.000000 -0.060416 0.000000 0.000000
# 5 0.000000 0.000000 0.000000 0.000000 -0.060413 0.000000
# 6 0.000000 0.000000 0.000000 0.000000 0.000000 0.038728
#
#
# Mechanical properties :
#
#
# Convention : Reuss Voigt Hill
#
# Bulk Modulus (GPa) = 48.87108 59.25923 54.06515
# Shear Modulus (GPa) = -435.45792 11.05069 -212.20361
#
# Velocity S-wave (km/s) = -15.46261 2.46323 -10.79409
# Velocity P-wave (km/s) = 17.08673 6.37392 11.21003
#
# Compressibility (1/GPa) = 0.02046200
#
# Stress axis : x y z
#
# Youngs Moduli (GPa) = 85.72288 85.72254 53.19504
#
# Poissons Ratio (x) = 0.46732 0.14316
# Poissons Ratio (y) = 0.46732 0.14316
# Poissons Ratio (z) = 0.23070 0.23070
#
# Static dielectric constant tensor:
#      x y z
#    x 1.624910 0.000000 0.000000 
#    y 0.000000 1.624910 0.000000 
#    z 0.000000 0.000000 1.662050 
# 
# From -- ./inp_files/7048.got.cif
#   From: 2010.05.17/outbox.cif.g08.bks.cpg/sg131_4_cif.got.tgz:7048.got - 2010.05.20 12:21:01.
