data_PCOD9566444
_publ_section_title
;
Structure prediction by ZEFSAII (Michael W. Deem and Ramdas Pophale) SiO2 
 PCOD9566444
Probable space group: P 42/M M C
;
_chemical_formula_sum "Si O2"
_cell_formula_units_Z 96
_cell_length_a 22.977871
_cell_length_b 22.977871
_cell_length_c 9.826934
_cell_angle_alpha 90.000000
_cell_angle_beta 90.000000
_cell_angle_gamma 90.000000
_cell_volume 5188.449728
_symmetry_space_group_name_H-M "P 42/M M C"
_symmetry_group_IT_number 131
_symmetry_cell_setting 'tetragonal'
loop_
_space_group_symop_operation_xyz
x,y,z
-x,-y,z
-y,x,1/2+z
y,-x,1/2+z
-x,y,-z
x,-y,-z
y,x,1/2-z
-y,-x,1/2-z
-x,-y,-z
x,y,-z
y,-x,1/2-z
-y,x,1/2-z
x,-y,z
-x,y,z
-y,-x,1/2+z
y,x,1/2+z
loop_
_atom_site_type_symbol
_atom_site_label
_atom_site_fract_x
_atom_site_fract_y
_atom_site_fract_z
Si Si1 0.890574 0.431167 0.659453
Si Si2 0.429669 0.350867 0.658925
Si Si3 0.429553 0.754596 0.152970
Si Si4 0.669295 0.065303 0.336537
Si Si5 0.236437 0.160055 0.658120
Si Si6 0.064005 0.865119 0.845850
O O1 0.904019 0.420619 0.500000
O O2 0.898012 0.500000 0.684621
O O3 0.822086 0.416378 0.679774
O O4 0.927560 0.391225 0.758453
O O5 0.401272 0.401272 0.750000
O O6 0.412804 0.353775 0.500000
O O7 0.500000 0.354327 0.664560
O O8 0.410662 0.290548 0.731692
O O9 0.500000 0.751402 0.149007
O O10 0.408778 0.739129 0.000000
O O11 0.662909 0.068927 0.500000
O O12 0.708959 0.120742 0.295255
O O13 0.693247 0.000000 0.307740
O O14 0.213531 0.213531 0.750000
O O15 0.244673 0.177780 0.500000
O O16 0.185267 0.111788 0.661625
O O17 0.083265 0.916736 0.750000
O O18 0.000000 0.842396 0.812292
O O19 0.063806 0.886137 0.000000
#
# Coordination Sequence:
#
# PCOD9566444 Si02
#       6
#    16  16  16  16  16  16
#     4   9  19  36  57  81 109 141 176 217 268 323
#     4  10  20  32  48  72 101 135 177 225 278 336
#     4   8  15  31  53  72  93 125 165 209 258 313
#     4  10  21  36  55  81 113 148 184 222 266 318
#     4   9  18  34  54  74  98 131 173 218 261 305
#     4   9  17  29  45  64  88 120 156 196 243 292
#
# _framework density 18.502637
#
# number of rings (size 3 to 8) (size 9 to 14) (size 15 to 20)
#    0.000    2.833    0.000    2.000    0.000    6.000 
#    0.000    5.833    0.000    5.000    0.000    0.000 
#    0.000    0.000    0.000    0.000    0.000    0.000 
#
# Total GULP energy -534604.028299 kJ/mol
# GULP energy per Si atom -5568.791961 kJ/mol
# Density = 1.846052 g / cm^3
# Si number density = 18.502637 Si / 1000 Ang^3
#
#
#
# Elastic Constant Matrix: (Units=GPa)
#
#
# Indices 1 2 3 4 5 6 
#
# 1 56.0567 22.2180 40.0892 0.0000 0.0000 0.0000
# 2 22.2180 56.0569 40.0873 0.0000 0.0000 0.0000
# 3 40.0892 40.0873 69.4308 0.0000 0.0000 0.0000
# 4 0.0000 0.0000 0.0000 25.7388 0.0000 0.0000
# 5 0.0000 0.0000 0.0000 0.0000 25.7387 0.0000
# 6 0.0000 0.0000 0.0000 0.0000 0.0000 13.0092
#
#
#
# Elastic Compliance Matrix: (Units=1/GPa)
#
#
# Indices 1 2 3 4 5 6 
#
# 1 0.030411 0.000858 -0.018054 0.000000 0.000000 0.000000
# 2 0.000858 0.030409 -0.018052 0.000000 0.000000 0.000000
# 3 -0.018054 -0.018052 0.035250 0.000000 0.000000 0.000000
# 4 0.000000 0.000000 0.000000 0.038852 0.000000 0.000000
# 5 0.000000 0.000000 0.000000 0.000000 0.038852 0.000000
# 6 0.000000 0.000000 0.000000 0.000000 0.000000 0.076869
#
#
# Mechanical properties :
#
#
# Convention : Reuss Voigt Hill
#
# Bulk Modulus (GPa) = 39.10555 42.92593 41.01574
# Shear Modulus (GPa) = 15.16696 18.17400 16.67048
#
# Velocity S-wave (km/s) = 2.86618 3.13747 3.00489
# Velocity P-wave (km/s) = 5.66871 6.03119 5.85276
#
# Compressibility (1/GPa) = 0.02557182
#
# Stress axis : x y z
#
# Youngs Moduli (GPa) = 32.88306 32.88547 28.36854
#
# Poissons Ratio (x) = -0.02821 0.51218
# Poissons Ratio (y) = -0.02821 0.51212
# Poissons Ratio (z) = 0.59368 0.59366
#
# Static dielectric constant tensor:
#      x y z
#    x 1.651790 0.000000 0.000000 
#    y 0.000000 1.651800 0.000000 
#    z 0.000000 0.000000 1.626830 
# 
# From -- ./inp_files/2200.got.cif
#   From: 2010.05.17/outbox.cif.g08.bks.cpg/sg131_2_cif.got.tgz:2200.got - 2010.05.20 12:21:01.
