data_PCOD9566279
_publ_section_title
;
Structure prediction by ZEFSAII (Michael W. Deem and Ramdas Pophale) SiO2 
 PCOD9566279
Probable space group: P 42/M M C
;
_chemical_formula_sum "Si O2"
_cell_formula_units_Z 128
_cell_length_a 17.298488
_cell_length_b 17.298488
_cell_length_c 26.007443
_cell_angle_alpha 90.000000
_cell_angle_beta 90.000000
_cell_angle_gamma 90.000000
_cell_volume 7782.407090
_symmetry_space_group_name_H-M "P 42/M M C"
_symmetry_group_IT_number 131
_symmetry_cell_setting 'tetragonal'
loop_
_space_group_symop_operation_xyz
x,y,z
-x,-y,z
-y,x,1/2+z
y,-x,1/2+z
-x,y,-z
x,-y,-z
y,x,1/2-z
-y,-x,1/2-z
-x,-y,-z
x,y,-z
y,-x,1/2-z
-y,x,1/2-z
x,-y,z
-x,y,z
-y,-x,1/2+z
y,x,1/2+z
loop_
_atom_site_type_symbol
_atom_site_label
_atom_site_fract_x
_atom_site_fract_y
_atom_site_fract_z
Si Si1 0.836675 0.294748 0.058136
Si Si2 0.707674 0.410446 0.061970
Si Si3 0.712259 0.590171 0.392682
Si Si4 0.286367 0.590082 0.730617
Si Si5 0.911057 0.776265 0.651928
Si Si6 0.216706 0.088447 0.348077
Si Si7 0.300048 0.166035 0.941752
Si Si8 0.161425 0.293614 0.248656
O O1 0.790519 0.371835 0.074379
O O2 0.896644 0.264272 0.099668
O O3 0.768229 0.230510 0.056903
O O4 0.866830 0.302920 0.000000
O O5 0.703898 0.500000 0.076064
O O6 0.640869 0.360159 0.088224
O O7 0.699097 0.403249 0.000000
O O8 0.702912 0.500000 0.405021
O O9 0.719000 0.598783 0.331206
O O10 0.787606 0.626428 0.419878
O O11 0.357828 0.642173 0.750000
O O12 0.296241 0.500000 0.743124
O O13 0.206947 0.625796 0.752925
O O14 0.854672 0.851004 0.652874
O O15 0.895946 0.729974 0.599149
O O16 0.885850 0.721552 0.699279
O O17 0.000000 0.798854 0.656962
O O18 0.272032 0.110698 0.300515
O O19 0.191075 0.000000 0.344182
O O20 0.312055 0.138472 0.000000
O O21 0.230531 0.230531 0.250000
#
# Coordination Sequence:
#
# PCOD9566279 Si02
#       8
#    16  16  16  16  16  16  16  16
#     4   8  16  31  50  71  98 135 174 205 240 293
#     4   9  18  31  48  73 103 134 169 210 256 302
#     4  10  19  32  50  74 101 133 173 215 260 304
#     4  10  21  35  53  76 104 138 175 215 259 302
#     4  10  19  33  54  77 104 135 163 203 257 309
#     4  10  20  33  53  80 104 129 165 209 252 304
#     4   9  17  31  50  73 100 134 179 216 244 294
#     4   9  18  34  54  74  99 134 179 210 242 296
#
# _framework density 16.447354000000001
#
# number of rings (size 3 to 8) (size 9 to 14) (size 15 to 20)
#    0.000    2.625    1.250    1.500    5.250    2.625 
#    0.000    1.875    0.000    6.000    0.000    6.125 
#    0.000    0.000    0.000    0.000    0.000    0.000 
#
# Total GULP energy -713242.140853 kJ/mol
# GULP energy per Si atom -5572.204225 kJ/mol
# Density = 1.640992 g / cm^3
# Si number density = 16.447354 Si / 1000 Ang^3
#
#
#
# Elastic Constant Matrix: (Units=GPa)
#
#
# Indices 1 2 3 4 5 6 
#
# 1 60.4522 64.2006 38.5870 0.0000 0.0000 0.0000
# 2 64.2006 60.4526 38.5870 0.0000 0.0000 0.0000
# 3 38.5870 38.5870 87.0054 0.0000 0.0000 0.0000
# 4 0.0000 0.0000 0.0000 13.8851 0.0000 0.0000
# 5 0.0000 0.0000 0.0000 0.0000 13.8850 0.0000
# 6 0.0000 0.0000 0.0000 0.0000 0.0000 13.8909
#
#
#
# Elastic Compliance Matrix: (Units=1/GPa)
#
#
# Indices 1 2 3 4 5 6 
#
# 1 -0.127869 0.138927 -0.004904 0.000000 0.000000 0.000000
# 2 0.138927 -0.127868 -0.004905 0.000000 0.000000 0.000000
# 3 -0.004904 -0.004905 0.015844 0.000000 0.000000 0.000000
# 4 0.000000 0.000000 0.000000 0.072020 0.000000 0.000000
# 5 0.000000 0.000000 0.000000 0.000000 0.072020 0.000000
# 6 0.000000 0.000000 0.000000 0.000000 0.000000 0.071990
#
#
# Mechanical properties :
#
#
# Convention : Reuss Voigt Hill
#
# Bulk Modulus (GPa) = 54.51634 54.51770 54.51702
# Shear Modulus (GPa) = -18.11688 12.76790 -2.67449
#
# Velocity S-wave (km/s) = -3.32250 2.78922 -1.27657
# Velocity P-wave (km/s) = 4.30108 6.60240 5.57185
#
# Compressibility (1/GPa) = 0.01834312
#
# Stress axis : x y z
#
# Youngs Moduli (GPa) = -7.82050 -7.82056 63.11581
#
# Poissons Ratio (x) = 1.08649 0.30955
# Poissons Ratio (y) = 1.08648 0.30956
# Poissons Ratio (z) = -0.03836 -0.03836
#
# Static dielectric constant tensor:
#      x y z
#    x 1.538420 0.000000 0.000000 
#    y 0.000000 1.538420 0.000000 
#    z 0.000000 0.000000 1.574410 
# 
# From -- ./inp_files/11506.got.cif
#   From: 2010.05.17/outbox.cif.g08.bks.cpg/sg131_6_cif.got.tgz:11506.got - 2010.05.20 12:21:01.
