data_PCOD9566061
_publ_section_title
;
Structure prediction by ZEFSAII (Michael W. Deem and Ramdas Pophale) SiO2 
 PCOD9566061
Probable space group: P 42/M M C
;
_chemical_formula_sum "Si O2"
_cell_formula_units_Z 80
_cell_length_a 16.683063
_cell_length_b 16.683063
_cell_length_c 14.199912
_cell_angle_alpha 90.000000
_cell_angle_beta 90.000000
_cell_angle_gamma 90.000000
_cell_volume 3952.184701
_symmetry_space_group_name_H-M "P 42/M M C"
_symmetry_group_IT_number 131
_symmetry_cell_setting 'tetragonal'
loop_
_space_group_symop_operation_xyz
x,y,z
-x,-y,z
-y,x,1/2+z
y,-x,1/2+z
-x,y,-z
x,-y,-z
y,x,1/2-z
-y,-x,1/2-z
-x,-y,-z
x,y,-z
y,-x,1/2-z
-y,x,1/2-z
x,-y,z
-x,y,z
-y,-x,1/2+z
y,x,1/2+z
loop_
_atom_site_type_symbol
_atom_site_label
_atom_site_fract_x
_atom_site_fract_y
_atom_site_fract_z
Si Si1 0.414658 0.352749 0.386944
Si Si2 0.825686 0.413411 0.798287
Si Si3 0.369797 0.759205 0.890285
Si Si4 0.912818 0.905904 0.385961
Si Si5 0.250079 0.823287 0.611645
O O1 0.411390 0.339367 0.500000
O O2 0.500000 0.392331 0.364946
O O3 0.414233 0.265437 0.339246
O O4 0.331783 0.396659 0.365226
O O5 0.861933 0.500000 0.824482
O O6 0.818363 0.406057 0.685851
O O7 0.857384 0.329516 0.838577
O O8 0.273122 0.757354 0.876704
O O9 0.386934 0.775671 0.000000
O O10 0.913115 0.899673 0.500000
O O11 0.832692 0.861943 0.354642
O O12 0.000000 0.874829 0.353496
O O13 0.908915 0.000000 0.363524
O O14 0.259084 0.837466 0.500000
#
# Coordination Sequence:
#
# PCOD9566061 Si02
#       5
#    16  16  16  16  16
#     4   8  13  22  38  60  84 111 147 194 251 313
#     4  10  18  27  42  62  87 123 166 215 264 303
#     4   9  17  28  42  61  86 120 165 215 262 302
#     4   8  14  26  47  78 114 144 163 183 227 302
#     4   9  16  27  47  74 102 132 165 202 246 302
#
# _framework density 20.241969000000001
#
# number of rings (size 3 to 8) (size 9 to 14) (size 15 to 20)
#    0.000    3.200    0.000    4.800    0.000    1.600 
#    0.000    0.000    0.000    6.000    0.000   16.800 
#    0.000    0.000    0.000   11.600    0.000    0.000 
#
# Total GULP energy -445732.564497 kJ/mol
# GULP energy per Si atom -5571.657056 kJ/mol
# Density = 2.019590 g / cm^3
# Si number density = 20.241969 Si / 1000 Ang^3
#
#
#
# Elastic Constant Matrix: (Units=GPa)
#
#
# Indices 1 2 3 4 5 6 
#
# 1 92.5639 49.3662 26.8075 0.0000 0.0000 0.0000
# 2 49.3662 92.5639 26.8075 0.0000 0.0000 0.0000
# 3 26.8075 26.8075 56.3785 0.0000 0.0000 0.0000
# 4 0.0000 0.0000 0.0000 -13.2046 0.0000 0.0000
# 5 0.0000 0.0000 0.0000 0.0000 -13.2046 0.0000
# 6 0.0000 0.0000 0.0000 0.0000 0.0000 -18.9597
#
#
#
# Elastic Compliance Matrix: (Units=1/GPa)
#
#
# Indices 1 2 3 4 5 6 
#
# 1 0.015869 -0.007281 -0.004084 0.000000 0.000000 0.000000
# 2 -0.007281 0.015869 -0.004084 0.000000 0.000000 0.000000
# 3 -0.004084 -0.004084 0.021621 0.000000 0.000000 0.000000
# 4 0.000000 0.000000 0.000000 -0.075731 0.000000 0.000000
# 5 0.000000 0.000000 0.000000 0.000000 -0.075731 0.000000
# 6 0.000000 0.000000 0.000000 0.000000 0.000000 -0.052743
#
#
# Mechanical properties :
#
#
# Convention : Reuss Voigt Hill
#
# Bulk Modulus (GPa) = 44.51820 49.71874 47.11847
# Shear Modulus (GPa) = -44.45883 0.16121 -22.14881
#
# Velocity S-wave (km/s) = -4.69163 0.28252 -3.31146
# Velocity P-wave (km/s) = 2.70328 4.97212 2.95078
#
# Compressibility (1/GPa) = 0.02246272
#
# Stress axis : x y z
#
# Youngs Moduli (GPa) = 63.01645 63.01645 46.25183
#
# Poissons Ratio (x) = 0.45879 0.18888
# Poissons Ratio (y) = 0.45879 0.18888
# Poissons Ratio (z) = 0.25734 0.25734
#
# Static dielectric constant tensor:
#      x y z
#    x 1.738590 0.000000 0.000000 
#    y 0.000000 1.738590 0.000000 
#    z 0.000000 0.000000 1.762930 
# 
# From -- ./inp_files/5725.got.cif
#   From: 2010.05.17/outbox.cif.g08.bks.cpg/sg131_3_cif.got.tgz:5725.got - 2010.05.20 12:21:01.
