data_PCOD9566506
_publ_section_title
;
Structure prediction by ZEFSAII (Michael W. Deem and Ramdas Pophale) SiO2 
 PCOD9566506
Probable space group: P 42/M M C
;
_chemical_formula_sum "Si O2"
_cell_formula_units_Z 104
_cell_length_a 18.507738
_cell_length_b 18.507738
_cell_length_c 18.119643
_cell_angle_alpha 90.000000
_cell_angle_beta 90.000000
_cell_angle_gamma 90.000000
_cell_volume 6206.636664
_symmetry_space_group_name_H-M "P 42/M M C"
_symmetry_group_IT_number 131
_symmetry_cell_setting 'tetragonal'
loop_
_space_group_symop_operation_xyz
x,y,z
-x,-y,z
-y,x,1/2+z
y,-x,1/2+z
-x,y,-z
x,-y,-z
y,x,1/2-z
-y,-x,1/2-z
-x,-y,-z
x,y,-z
y,-x,1/2-z
-y,x,1/2-z
x,-y,z
-x,y,z
-y,-x,1/2+z
y,x,1/2+z
loop_
_atom_site_type_symbol
_atom_site_label
_atom_site_fract_x
_atom_site_fract_y
_atom_site_fract_z
Si Si1 0.416531 0.086237 0.809647
Si Si2 0.838633 0.416423 0.850051
Si Si3 0.711977 0.144344 0.912119
Si Si4 0.917051 0.816152 0.198087
Si Si5 0.920172 0.587421 0.000000
Si Si6 0.222678 0.275041 0.173074
Si Si7 0.078949 0.866066 0.587715
O O1 0.500000 0.100657 0.833370
O O2 0.410574 0.115830 0.725902
O O3 0.356827 0.121706 0.863194
O O4 0.405927 0.000000 0.809619
O O5 0.817257 0.500000 0.857634
O O6 0.882015 0.394240 0.923479
O O7 0.775325 0.358611 0.845606
O O8 0.741513 0.222757 0.887193
O O9 0.781517 0.093845 0.893963
O O10 0.698097 0.140343 0.000000
O O11 0.873943 0.873943 0.250000
O O12 0.860966 0.750049 0.188199
O O13 0.914486 0.858543 0.121068
O O14 0.000000 0.799955 0.219324
O O15 0.924505 0.500000 0.000000
O O16 0.000000 0.618590 0.000000
O O17 0.261302 0.261302 0.250000
O O18 0.079760 0.870678 0.500000
O O19 0.000000 0.887703 0.615451
#
# Coordination Sequence:
#
# PCOD9566506 Si02
#       7
#    16  16  16  16   8  16  16
#     4  10  20  33  52  79 109 142 180 218 258 312
#     4  10  20  35  55  78 105 136 173 217 263 314
#     4  10  20  34  52  73 103 137 172 213 259 312
#     4  10  21  33  46  66  90 120 162 211 257 301
#     4   9  18  32  50  76 108 138 168 209 262 312
#     4  10  20  37  53  74  98 133 171 212 259 313
#     4   9  18  32  48  64  86 121 164 208 255 299
#
# _framework density 16.756257999999999
#
# number of rings (size 3 to 8) (size 9 to 14) (size 15 to 20)
#    0.000    2.231    1.538    1.385    1.077    5.692 
#    0.000    1.538    0.000    0.000    0.000    0.000 
#    0.000    2.154    0.000    1.385    0.000    0.000 
#
# Total GULP energy -579695.592147 kJ/mol
# GULP energy per Si atom -5573.996078 kJ/mol
# Density = 1.671812 g / cm^3
# Si number density = 16.756258 Si / 1000 Ang^3
#
#
#
# Elastic Constant Matrix: (Units=GPa)
#
#
# Indices 1 2 3 4 5 6 
#
# 1 76.8420 19.5595 24.2413 0.0000 0.0000 0.0000
# 2 19.5595 76.8420 24.2413 0.0000 0.0000 0.0000
# 3 24.2413 24.2413 77.6029 0.0000 0.0000 0.0000
# 4 0.0000 0.0000 0.0000 19.2923 0.0000 0.0000
# 5 0.0000 0.0000 0.0000 0.0000 19.2923 0.0000
# 6 0.0000 0.0000 0.0000 0.0000 0.0000 11.5834
#
#
#
# Elastic Compliance Matrix: (Units=1/GPa)
#
#
# Indices 1 2 3 4 5 6 
#
# 1 0.014882 -0.002575 -0.003844 0.000000 0.000000 0.000000
# 2 -0.002575 0.014882 -0.003844 0.000000 0.000000 0.000000
# 3 -0.003844 -0.003844 0.015288 0.000000 0.000000 0.000000
# 4 0.000000 0.000000 0.000000 0.051834 0.000000 0.000000
# 5 0.000000 0.000000 0.000000 0.000000 0.051834 0.000000
# 6 0.000000 0.000000 0.000000 0.000000 0.000000 0.086330
#
#
# Mechanical properties :
#
#
# Convention : Reuss Voigt Hill
#
# Bulk Modulus (GPa) = 40.77646 40.81903 40.79775
# Shear Modulus (GPa) = 18.95712 20.91657 19.93685
#
# Velocity S-wave (km/s) = 3.36720 3.53694 3.45311
# Velocity P-wave (km/s) = 6.28532 6.41040 6.34817
#
# Compressibility (1/GPa) = 0.02452395
#
# Stress axis : x y z
#
# Youngs Moduli (GPa) = 67.19525 67.19525 65.41130
#
# Poissons Ratio (x) = 0.17305 0.25146
# Poissons Ratio (y) = 0.17305 0.25146
# Poissons Ratio (z) = 0.25832 0.25832
#
# Static dielectric constant tensor:
#      x y z
#    x 1.571710 0.000000 0.000000 
#    y 0.000000 1.571710 0.000000 
#    z 0.000000 0.000000 1.779760 
# 
# From -- ./inp_files/8108.got.cif
#   From: 2010.05.17/outbox.cif.g08.bks.cpg/sg131_5_cif.got.tgz:8108.got - 2010.05.20 12:21:01.
