data_PCOD9566955
_publ_section_title
;
Structure prediction by ZEFSAII (Michael W. Deem and Ramdas Pophale) SiO2 
 PCOD9566955
Probable space group: P 42/M C M
;
_chemical_formula_sum "Si O2"
_cell_formula_units_Z 128
_cell_length_a 19.867867
_cell_length_b 19.867867
_cell_length_c 20.227911
_cell_angle_alpha 90.000000
_cell_angle_beta 90.000000
_cell_angle_gamma 90.000000
_cell_volume 7984.606579
_symmetry_space_group_name_H-M "P 42/M C M"
_symmetry_group_IT_number 132
_symmetry_cell_setting 'tetragonal'
loop_
_space_group_symop_operation_xyz
x,y,z
-y,x,1/2+z
-x,-y,z
y,-x,1/2+z
x,-y,1/2-z
-x,y,1/2-z
y,x,-z
-y,-x,-z
-x,-y,-z
y,-x,1/2-z
x,y,-z
-y,x,1/2-z
-x,y,1/2+z
x,-y,1/2+z
-y,-x,z
y,x,z
loop_
_atom_site_type_symbol
_atom_site_label
_atom_site_fract_x
_atom_site_fract_y
_atom_site_fract_z
Si Si1 0.301095 0.409697 0.895720
Si Si2 0.198547 0.310676 0.575280
Si Si3 0.074798 0.347828 0.172348
Si Si4 0.651993 0.922761 0.672279
Si Si5 0.499757 0.116050 0.173223
Si Si6 0.573425 0.318084 0.243463
Si Si7 0.245389 0.454486 0.610709
Si Si8 0.190040 0.699385 0.575026
O O1 0.371394 0.371394 0.909143
O O2 0.290657 0.409052 0.815851
O O3 0.296091 0.488138 0.915115
O O4 0.242308 0.363265 0.924072
O O5 0.175473 0.297329 0.500000
O O6 0.252904 0.252904 0.593566
O O7 0.136207 0.318456 0.626068
O O8 0.234827 0.384021 0.575069
O O9 0.089528 0.334171 0.249912
O O10 0.079181 0.429070 0.164038
O O11 0.130620 0.314814 0.125961
O O12 0.998681 0.325231 0.156720
O O13 0.570411 0.922316 0.665474
O O14 0.500000 0.139993 0.250000
O O15 0.505645 0.175826 0.120469
O O16 0.500000 0.351118 0.250000
O O17 0.628787 0.371214 0.223580
O O18 0.566572 0.264840 0.185482
O O19 0.164970 0.707154 0.500000
O O20 0.235789 0.764212 0.592351
#
# Coordination Sequence:
#
# PCOD9566955 Si02
#       8
#    16  16  16  16  16  16  16  16
#     4   9  17  29  44  64  91 122 162 210 256 300
#     4  10  22  37  51  70  97 128 166 210 250 290
#     4  10  18  33  51  75 100 130 159 201 241 291
#     4   9  20  32  52  75  99 125 166 200 242 293
#     4   9  15  26  45  69  98 127 155 194 241 287
#     4   9  17  26  41  62  83 112 154 206 261 311
#     4  10  17  28  46  68  90 122 166 209 251 299
#     4  10  21  33  46  68  99 133 166 199 240 289
#
# _framework density 16.030846
#
# number of rings (size 3 to 8) (size 9 to 14) (size 15 to 20)
#    0.000    2.500    1.250    1.875    3.500    3.125 
#    0.000    0.000    0.000    3.375    0.000    0.875 
#    0.000    0.500    0.000    5.500    0.000    4.000 
#
# Total GULP energy -712809.716697 kJ/mol
# GULP energy per Si atom -5568.825912 kJ/mol
# Density = 1.599436 g / cm^3
# Si number density = 16.030846 Si / 1000 Ang^3
#
#
#
# Elastic Constant Matrix: (Units=GPa)
#
#
# Indices 1 2 3 4 5 6 
#
# 1 82.8781 47.0180 53.2105 0.0000 0.0000 0.0000
# 2 47.0180 82.8781 53.2105 0.0000 0.0000 0.0000
# 3 53.2105 53.2105 68.9341 0.0000 0.0000 0.0000
# 4 0.0000 0.0000 0.0000 11.6825 0.0000 0.0000
# 5 0.0000 0.0000 0.0000 0.0000 11.6825 0.0000
# 6 0.0000 0.0000 0.0000 0.0000 0.0000 22.9797
#
#
#
# Elastic Compliance Matrix: (Units=1/GPa)
#
#
# Indices 1 2 3 4 5 6 
#
# 1 0.024414 -0.003472 -0.016166 0.000000 0.000000 0.000000
# 2 -0.003472 0.024414 -0.016166 0.000000 0.000000 0.000000
# 3 -0.016166 -0.016166 0.039464 0.000000 0.000000 0.000000
# 4 0.000000 0.000000 0.000000 0.085598 0.000000 0.000000
# 5 0.000000 0.000000 0.000000 0.000000 0.085598 0.000000
# 6 0.000000 0.000000 0.000000 0.000000 0.000000 0.043517
#
#
# Mechanical properties :
#
#
# Convention : Reuss Voigt Hill
#
# Bulk Modulus (GPa) = 59.93115 60.17426 60.05271
# Shear Modulus (GPa) = 13.15189 14.68569 13.91879
#
# Velocity S-wave (km/s) = 2.86739 3.02998 2.94981
# Velocity P-wave (km/s) = 6.95907 7.06110 7.01027
#
# Compressibility (1/GPa) = 0.01668581
#
# Stress axis : x y z
#
# Youngs Moduli (GPa) = 40.95932 40.95932 25.33984
#
# Poissons Ratio (x) = 0.14220 0.40964
# Poissons Ratio (y) = 0.14220 0.40964
# Poissons Ratio (z) = 0.66214 0.66214
#
# Static dielectric constant tensor:
#      x y z
#    x 1.543610 0.000000 0.000000 
#    y 0.000000 1.543610 0.000000 
#    z 0.000000 0.000000 1.564280 
# 
# From -- ./inp_files/6847.got.cif
#   From: 2010.05.17/outbox.cif.g08.bks.cpg/sg132_4_cif.got.tgz:6847.got - 2010.05.20 12:30:18.
