data_PCOD9566839
_publ_section_title
;
Structure prediction by ZEFSAII (Michael W. Deem and Ramdas Pophale) SiO2 
 PCOD9566839
Probable space group: P 42/M M C
;
_chemical_formula_sum "Si O2"
_cell_formula_units_Z 64
_cell_length_a 16.694730
_cell_length_b 16.694730
_cell_length_c 15.971477
_cell_angle_alpha 90.000000
_cell_angle_beta 90.000000
_cell_angle_gamma 90.000000
_cell_volume 4451.474397
_symmetry_space_group_name_H-M "P 42/M M C"
_symmetry_group_IT_number 131
_symmetry_cell_setting 'tetragonal'
loop_
_space_group_symop_operation_xyz
x,y,z
-x,-y,z
-y,x,1/2+z
y,-x,1/2+z
-x,y,-z
x,-y,-z
y,x,1/2-z
-y,-x,1/2-z
-x,-y,-z
x,y,-z
y,-x,1/2-z
-y,x,1/2-z
x,-y,z
-x,y,z
-y,-x,1/2+z
y,x,1/2+z
loop_
_atom_site_type_symbol
_atom_site_label
_atom_site_fract_x
_atom_site_fract_y
_atom_site_fract_z
Si Si1 0.165223 0.903648 0.836074
Si Si2 0.500000 0.097357 0.631605
Si Si3 0.097075 0.666011 0.595271
Si Si4 0.097434 0.366983 0.000000
Si Si5 0.182387 0.904101 0.500000
Si Si6 0.500000 0.097915 0.176226
O O1 0.128730 0.871271 0.750000
O O2 0.259386 0.883351 0.845501
O O3 0.156171 0.000000 0.839808
O O4 0.124461 0.863590 0.916966
O O5 0.579383 0.121628 0.580151
O O6 0.500000 0.123604 0.727252
O O7 0.500000 0.000000 0.631565
O O8 0.124636 0.680559 0.500000
O O9 0.124394 0.580639 0.629848
O O10 0.000000 0.663168 0.592338
O O11 0.124703 0.275144 0.000000
O O12 0.000000 0.364945 0.000000
O O13 0.183696 0.000000 0.500000
O O14 0.500000 0.000000 0.175340
#
# Coordination Sequence:
#
# PCOD9566839 Si02
#       6
#    16   8  16   8   8   8
#     4  11  23  36  48  63  86 119 161 208 243 269
#     4   8  14  26  42  64  89 105 126 170 222 281
#     4   9  17  31  46  63  85 107 138 183 233 280
#     4   8  16  28  42  62  86 109 137 176 226 279
#     4  11  22  34  50  64  83 119 162 203 241 271
#     4   9  16  24  46  69  83 103 131 170 223 286
#
# _framework density 14.377259
#
# number of rings (size 3 to 8) (size 9 to 14) (size 15 to 20)
#    0.000    2.500    1.250    2.250    3.500    3.750 
#    0.000    0.000    0.000    0.000    0.000    0.000 
#    0.000    0.000    0.000    0.000    0.000   15.625 
#
# Total GULP energy -356484.166784 kJ/mol
# GULP energy per Si atom -5570.065106 kJ/mol
# Density = 1.434454 g / cm^3
# Si number density = 14.377259 Si / 1000 Ang^3
#
#
#
# Elastic Constant Matrix: (Units=GPa)
#
#
# Indices 1 2 3 4 5 6 
#
# 1 84.6548 26.4964 45.3043 0.0000 0.0000 0.0000
# 2 26.4964 84.6536 45.3027 0.0000 0.0000 0.0000
# 3 45.3043 45.3027 114.5508 0.0000 0.0000 0.0000
# 4 0.0000 0.0000 0.0000 14.0041 0.0000 0.0000
# 5 0.0000 0.0000 0.0000 0.0000 14.0039 0.0000
# 6 0.0000 0.0000 0.0000 0.0000 0.0000 -1.6081
#
#
#
# Elastic Compliance Matrix: (Units=1/GPa)
#
#
# Indices 1 2 3 4 5 6 
#
# 1 0.015236 -0.001959 -0.005251 0.000000 0.000000 0.000000
# 2 -0.001959 0.015236 -0.005251 0.000000 0.000000 0.000000
# 3 -0.005251 -0.005251 0.012883 0.000000 0.000000 0.000000
# 4 0.000000 0.000000 0.000000 0.071408 0.000000 0.000000
# 5 0.000000 0.000000 0.000000 0.000000 0.071409 0.000000
# 6 0.000000 0.000000 0.000000 0.000000 0.000000 -0.621851
#
#
# Mechanical properties :
#
#
# Convention : Reuss Voigt Hill
#
# Bulk Modulus (GPa) = 54.24844 57.56290 55.90567
# Shear Modulus (GPa) = -12.35749 16.39703 2.01977
#
# Velocity S-wave (km/s) = -2.93493 3.38077 1.18654
# Velocity P-wave (km/s) = 5.13117 7.44069 6.39112
#
# Compressibility (1/GPa) = 0.01843371
#
# Stress axis : x y z
#
# Youngs Moduli (GPa) = 65.63423 65.63430 77.62054
#
# Poissons Ratio (x) = 0.12855 0.40760
# Poissons Ratio (y) = 0.12855 0.40758
# Poissons Ratio (z) = 0.34465 0.34464
#
# Static dielectric constant tensor:
#      x y z
#    x 1.467550 0.000000 0.000000 
#    y 0.000000 1.467550 0.000000 
#    z 0.000000 0.000000 1.479120 
# 
# From -- ./inp_files/7452.got.cif
#   From: 2010.05.17/outbox.cif.g08.bks.cpg/sg131_4_cif.got.tgz:7452.got - 2010.05.20 12:21:01.
