data_PCOD9566136
_publ_section_title
;
Structure prediction by ZEFSAII (Michael W. Deem and Ramdas Pophale) SiO2 
 PCOD9566136
Probable space group: P 42/M M C
;
_chemical_formula_sum "Si O2"
_cell_formula_units_Z 104
_cell_length_a 17.842241
_cell_length_b 17.842241
_cell_length_c 15.981899
_cell_angle_alpha 90.000000
_cell_angle_beta 90.000000
_cell_angle_gamma 90.000000
_cell_volume 5087.766649
_symmetry_space_group_name_H-M "P 42/M M C"
_symmetry_group_IT_number 131
_symmetry_cell_setting 'tetragonal'
loop_
_space_group_symop_operation_xyz
x,y,z
-x,-y,z
-y,x,1/2+z
y,-x,1/2+z
-x,y,-z
x,-y,-z
y,x,1/2-z
-y,-x,1/2-z
-x,-y,-z
x,y,-z
y,-x,1/2-z
-y,x,1/2-z
x,-y,z
-x,y,z
-y,-x,1/2+z
y,x,1/2+z
loop_
_atom_site_type_symbol
_atom_site_label
_atom_site_fract_x
_atom_site_fract_y
_atom_site_fract_z
Si Si1 0.681107 0.417246 0.399754
Si Si2 0.000000 0.191975 0.602009
Si Si3 0.658188 0.840133 0.130056
Si Si4 0.365238 0.000000 0.140281
Si Si5 0.720435 0.585337 0.101125
Si Si6 0.832749 0.163949 0.905066
Si Si7 0.320148 0.143671 0.328671
Si Si8 0.000000 0.587222 0.168209
O O1 0.670914 0.420784 0.500000
O O2 0.671873 0.500000 0.364107
O O3 0.765414 0.388074 0.385965
O O4 0.620605 0.357586 0.368227
O O5 0.078354 0.151912 0.622516
O O6 0.000000 0.204451 0.500000
O O7 0.000000 0.273658 0.645849
O O8 0.620813 0.918417 0.100177
O O9 0.741786 0.831490 0.094033
O O10 0.669112 0.849173 0.229515
O O11 0.405185 0.000000 0.230260
O O12 0.733197 0.500000 0.130302
O O13 0.783801 0.642740 0.130078
O O14 0.720040 0.584133 0.000000
O O15 0.861526 0.232434 0.849782
O O16 0.859954 0.174047 0.000000
O O17 0.367732 0.073018 0.360212
O O18 0.000000 0.500000 0.144846
#
# Coordination Sequence:
#
# PCOD9566136 Si02
#       8
#    16   8  16   8  16  16  16   8
#     4  10  21  36  54  78 109 144 182 229 283 336
#     4   8  16  30  52  84 115 143 177 225 278 336
#     4  10  19  33  54  82 111 145 184 226 272 329
#     4   8  18  32  52  76 108 147 183 216 271 334
#     4  10  21  37  56  77 104 142 187 232 279 331
#     4  10  18  32  55  82 113 145 182 225 273 332
#     4  11  21  35  58  83 108 148 192 231 276 335
#     4  10  22  38  53  76 114 151 188 239 289 330
#
# _framework density 20.441189999999999
#
# number of rings (size 3 to 8) (size 9 to 14) (size 15 to 20)
#    0.000    2.154    1.538    1.846    0.000    4.000 
#    0.000    3.077    0.000    4.385    0.000    3.769 
#    0.000    7.385    0.000    0.231    0.000    0.000 
#
# Total GULP energy -580335.735792 kJ/mol
# GULP energy per Si atom -5580.151306 kJ/mol
# Density = 2.039466 g / cm^3
# Si number density = 20.441190 Si / 1000 Ang^3
#
#
#
# Elastic Constant Matrix: (Units=GPa)
#
#
# Indices 1 2 3 4 5 6 
#
# 1 114.5250 35.3594 15.2116 0.0000 0.0000 0.0000
# 2 35.3594 114.5250 15.2116 0.0000 0.0000 0.0000
# 3 15.2116 15.2116 28.9979 0.0000 0.0000 0.0000
# 4 0.0000 0.0000 0.0000 17.1753 0.0000 0.0000
# 5 0.0000 0.0000 0.0000 0.0000 17.1753 0.0000
# 6 0.0000 0.0000 0.0000 0.0000 0.0000 -9.9337
#
#
#
# Elastic Compliance Matrix: (Units=1/GPa)
#
#
# Indices 1 2 3 4 5 6 
#
# 1 0.010049 -0.002582 -0.003917 0.000000 0.000000 0.000000
# 2 -0.002582 0.010049 -0.003917 0.000000 0.000000 0.000000
# 3 -0.003917 -0.003917 0.038595 0.000000 0.000000 0.000000
# 4 0.000000 0.000000 0.000000 0.058223 0.000000 0.000000
# 5 0.000000 0.000000 0.000000 0.000000 0.058223 0.000000
# 6 0.000000 0.000000 0.000000 0.000000 0.000000 -0.100668
#
#
# Mechanical properties :
#
#
# Convention : Reuss Voigt Hill
#
# Bulk Modulus (GPa) = 26.41260 43.29034 34.85147
# Shear Modulus (GPa) = 46.32870 17.70108 32.01489
#
# Velocity S-wave (km/s) = 4.76588 2.94590 3.96181
# Velocity P-wave (km/s) = 6.57526 5.72670 6.16560
#
# Compressibility (1/GPa) = 0.03786072
#
# Stress axis : x y z
#
# Youngs Moduli (GPa) = 99.50931 99.50931 25.91023
#
# Poissons Ratio (x) = 0.25698 0.10149
# Poissons Ratio (y) = 0.25698 0.10149
# Poissons Ratio (z) = 0.38977 0.38977
#
# Static dielectric constant tensor:
#      x y z
#    x 1.732460 0.000000 0.000000 
#    y 0.000000 1.732460 0.000000 
#    z 0.000000 0.000000 1.757880 
# 
# From -- ./inp_files/8129.got.cif
#   From: 2010.05.17/outbox.cif.g08.bks.cpg/sg131_5_cif.got.tgz:8129.got - 2010.05.20 12:21:01.
