data_PCOD9566588
_publ_section_title
;
Structure prediction by ZEFSAII (Michael W. Deem and Ramdas Pophale) SiO2 
 PCOD9566588
Probable space group: P 42/M M C
;
_chemical_formula_sum "Si O2"
_cell_formula_units_Z 92
_cell_length_a 15.765349
_cell_length_b 15.765349
_cell_length_c 20.048856
_cell_angle_alpha 90.000000
_cell_angle_beta 90.000000
_cell_angle_gamma 90.000000
_cell_volume 4983.067556
_symmetry_space_group_name_H-M "P 42/M M C"
_symmetry_group_IT_number 131
_symmetry_cell_setting 'tetragonal'
loop_
_space_group_symop_operation_xyz
x,y,z
-x,-y,z
-y,x,1/2+z
y,-x,1/2+z
-x,y,-z
x,-y,-z
y,x,1/2-z
-y,-x,1/2-z
-x,-y,-z
x,y,-z
y,-x,1/2-z
-y,x,1/2-z
x,-y,z
-x,y,z
-y,-x,1/2+z
y,x,1/2+z
loop_
_atom_site_type_symbol
_atom_site_label
_atom_site_fract_x
_atom_site_fract_y
_atom_site_fract_z
Si Si1 0.000000 0.731308 0.000000
Si Si2 0.741238 0.722277 0.138721
Si Si3 0.668232 0.097232 0.000000
Si Si4 0.238401 0.187592 0.500000
Si Si5 0.407450 0.845919 0.718053
Si Si6 0.598679 0.402764 0.830542
Si Si7 0.000000 0.592366 0.885285
Si Si8 0.901415 0.662095 0.645689
O O1 0.911978 0.781948 0.000000
O O2 0.000000 0.669116 0.063641
O O3 0.789567 0.712442 0.068189
O O4 0.788015 0.671617 0.197668
O O5 0.652652 0.671540 0.135729
O O6 0.728785 0.822976 0.150069
O O7 0.749585 0.158175 0.000000
O O8 0.623019 0.109407 0.928719
O O9 0.697101 0.000000 0.000000
O O10 0.500000 0.802880 0.713915
O O11 0.405023 0.919939 0.663671
O O12 0.397323 0.884225 0.791460
O O13 0.605511 0.394490 0.750000
O O14 0.623596 0.500000 0.848406
O O15 0.500000 0.393391 0.847175
O O16 0.000000 0.500000 0.919396
O O17 0.000000 0.692414 0.650334
#
# Coordination Sequence:
#
# PCOD9566588 Si02
#       8
#     4  16   8   8  16  16   8  16
#     4  12  19  40  55  74 116 154 184 220 293 334
#     4  11  21  36  55  82 110 147 194 232 283 337
#     4   8  18  38  57  77 107 144 190 236 288 338
#     4  10  22  35  56  79 106 145 192 233 274 350
#     4  11  21  35  55  84 117 146 185 236 280 334
#     4   9  18  34  55  79 108 143 186 234 280 329
#     4  10  21  34  52  78 115 149 182 224 274 333
#     4  10  20  35  56  80 112 148 186 234 285 342
#
# _framework density 18.462523000000001
#
# number of rings (size 3 to 8) (size 9 to 14) (size 15 to 20)
#    0.000    1.913    2.609    2.739    0.000    2.087 
#    0.000    2.826    0.000    5.739    0.000    0.609 
#    0.000    0.000    0.000    0.000    0.000    0.000 
#
# Total GULP energy -512312.713099 kJ/mol
# GULP energy per Si atom -5568.616447 kJ/mol
# Density = 1.842050 g / cm^3
# Si number density = 18.462523 Si / 1000 Ang^3
#
#
#
# Elastic Constant Matrix: (Units=GPa)
#
#
# Indices 1 2 3 4 5 6 
#
# 1 90.7220 28.5250 27.1134 0.0000 0.0000 0.0000
# 2 28.5250 90.7218 27.1133 0.0000 0.0000 0.0000
# 3 27.1134 27.1133 114.2610 0.0000 0.0000 0.0000
# 4 0.0000 0.0000 0.0000 0.2802 0.0000 0.0000
# 5 0.0000 0.0000 0.0000 0.0000 0.2801 0.0000
# 6 0.0000 0.0000 0.0000 0.0000 0.0000 9.1630
#
#
#
# Elastic Compliance Matrix: (Units=1/GPa)
#
#
# Indices 1 2 3 4 5 6 
#
# 1 0.012739 -0.003339 -0.002231 0.000000 0.000000 0.000000
# 2 -0.003339 0.012739 -0.002231 0.000000 0.000000 0.000000
# 3 -0.002231 -0.002231 0.009811 0.000000 0.000000 0.000000
# 4 0.000000 0.000000 0.000000 3.568286 0.000000 0.000000
# 5 0.000000 0.000000 0.000000 0.000000 3.570711 0.000000
# 6 0.000000 0.000000 0.000000 0.000000 0.000000 0.109135
#
#
# Mechanical properties :
#
#
# Convention : Reuss Voigt Hill
#
# Bulk Modulus (GPa) = 50.79070 51.24535 51.01803
# Shear Modulus (GPa) = 0.68441 16.14153 8.41297
#
# Velocity S-wave (km/s) = 0.60951 2.96004 2.13698
# Velocity P-wave (km/s) = 5.29766 6.28483 5.81224
#
# Compressibility (1/GPa) = 0.01968864
#
# Stress axis : x y z
#
# Youngs Moduli (GPa) = 78.49818 78.49815 101.93146
#
# Poissons Ratio (x) = 0.26209 0.22737
# Poissons Ratio (y) = 0.26209 0.22737
# Poissons Ratio (z) = 0.17510 0.17510
#
# Static dielectric constant tensor:
#      x y z
#    x 1.653350 0.000000 0.000000 
#    y 0.000000 1.653350 0.000000 
#    z 0.000000 0.000000 1.656430 
# 
# From -- ./inp_files/9830.got.cif
#   From: 2010.05.17/outbox.cif.g08.bks.cpg/sg131_5_cif.got.tgz:9830.got - 2010.05.20 12:21:01.
