data_PCOD9566681
_publ_section_title
;
Structure prediction by ZEFSAII (Michael W. Deem and Ramdas Pophale) SiO2 
 PCOD9566681
Probable space group: P 42/M M C
;
_chemical_formula_sum "Si O2"
_cell_formula_units_Z 88
_cell_length_a 25.400379
_cell_length_b 25.400379
_cell_length_c 8.580320
_cell_angle_alpha 90.000000
_cell_angle_beta 90.000000
_cell_angle_gamma 90.000000
_cell_volume 5535.844451
_symmetry_space_group_name_H-M "P 42/M M C"
_symmetry_group_IT_number 131
_symmetry_cell_setting 'tetragonal'
loop_
_space_group_symop_operation_xyz
x,y,z
-x,-y,z
-y,x,1/2+z
y,-x,1/2+z
-x,y,-z
x,-y,-z
y,x,1/2-z
-y,-x,1/2-z
-x,-y,-z
x,y,-z
y,-x,1/2-z
-y,x,1/2-z
x,-y,z
-x,y,z
-y,-x,1/2+z
y,x,1/2+z
loop_
_atom_site_type_symbol
_atom_site_label
_atom_site_fract_x
_atom_site_fract_y
_atom_site_fract_z
Si Si1 0.666470 0.748584 0.314809
Si Si2 0.712279 0.060850 0.311721
Si Si3 0.400063 0.110263 0.684009
Si Si4 0.831710 0.251240 0.686241
Si Si5 0.438984 0.779655 0.184867
Si Si6 0.938998 0.500000 0.325285
O O1 0.700283 0.700283 0.250000
O O2 0.670049 0.751117 0.500000
O O3 0.697004 0.800560 0.249760
O O4 0.605899 0.744075 0.263187
O O5 0.716497 0.061899 0.500000
O O6 0.653183 0.080186 0.270133
O O7 0.747852 0.107803 0.242646
O O8 0.721300 0.000000 0.261982
O O9 0.396599 0.122576 0.500000
O O10 0.415759 0.162965 0.774978
O O11 0.449197 0.074396 0.725175
O O12 0.798197 0.201804 0.750000
O O13 0.829283 0.252044 0.500000
O O14 0.500000 0.775585 0.239124
O O15 0.438721 0.771505 0.000000
O O16 0.912941 0.500000 0.500000
O O17 0.000000 0.500000 0.350005
#
# Coordination Sequence:
#
# PCOD9566681 Si02
#       6
#    16  16  16  16  16   8
#     4  11  21  35  55  77 102 132 171 213 260 311
#     4  10  21  36  52  72 100 132 168 212 259 306
#     4  11  21  33  50  68  91 127 171 214 256 302
#     4  11  21  34  54  76 101 132 170 213 260 310
#     4  11  22  35  52  74 103 135 170 213 260 306
#     4  11  23  35  45  59  85 123 169 219 262 299
#
# _framework density 15.896400999999999
#
# number of rings (size 3 to 8) (size 9 to 14) (size 15 to 20)
#    0.000    1.182    2.727    6.273    0.000    3.636 
#    0.000    0.000    0.000    0.000    0.000    0.000 
#    0.000    0.727    0.000    7.636    0.000    3.273 
#
# Total GULP energy -490893.142917 kJ/mol
# GULP energy per Si atom -5578.331170 kJ/mol
# Density = 1.586022 g / cm^3
# Si number density = 15.896401 Si / 1000 Ang^3
#
#
#
# Elastic Constant Matrix: (Units=GPa)
#
#
# Indices 1 2 3 4 5 6 
#
# 1 153.5077 6.9880 34.9744 0.0000 0.0000 0.0000
# 2 6.9880 153.4801 34.9837 0.0000 0.0000 0.0000
# 3 34.9744 34.9837 78.7751 0.0000 0.0000 0.0000
# 4 0.0000 0.0000 0.0000 21.7796 0.0000 0.0000
# 5 0.0000 0.0000 0.0000 0.0000 21.7800 0.0000
# 6 0.0000 0.0000 0.0000 0.0000 0.0000 19.0978
#
#
#
# Elastic Compliance Matrix: (Units=1/GPa)
#
#
# Indices 1 2 3 4 5 6 
#
# 1 0.007275 0.000451 -0.003430 0.000000 0.000000 0.000000
# 2 0.000451 0.007277 -0.003432 0.000000 0.000000 0.000000
# 3 -0.003430 -0.003432 0.015741 0.000000 0.000000 0.000000
# 4 0.000000 0.000000 0.000000 0.045915 0.000000 0.000000
# 5 0.000000 0.000000 0.000000 0.000000 0.045914 0.000000
# 6 0.000000 0.000000 0.000000 0.000000 0.000000 0.052362
#
#
# Mechanical properties :
#
#
# Convention : Reuss Voigt Hill
#
# Bulk Modulus (GPa) = 57.23750 59.96167 58.59958
# Shear Modulus (GPa) = 25.88919 33.11928 29.50424
#
# Velocity S-wave (km/s) = 4.03999 4.56943 4.31284
# Velocity P-wave (km/s) = 7.60571 8.10196 7.85775
#
# Compressibility (1/GPa) = 0.01747106
#
# Stress axis : x y z
#
# Youngs Moduli (GPa) = 137.45069 137.41495 63.52689
#
# Poissons Ratio (x) = -0.06192 0.21791
# Poissons Ratio (y) = -0.06194 0.21801
# Poissons Ratio (z) = 0.47148 0.47159
#
# Static dielectric constant tensor:
#      x y z
#    x 1.710680 0.000000 0.000000 
#    y 0.000000 1.710640 0.000000 
#    z 0.000000 0.000000 1.799410 
# 
# From -- ./inp_files/2429.got.cif
#   From: 2010.05.17/outbox.cif.g08.bks.cpg/sg131_2_cif.got.tgz:2429.got - 2010.05.20 12:21:01.
