data_PCOD9566858
_publ_section_title
;
Structure prediction by ZEFSAII (Michael W. Deem and Ramdas Pophale) SiO2 
 PCOD9566858
Probable space group: P 42/M M C
;
_chemical_formula_sum "Si O2"
_cell_formula_units_Z 40
_cell_length_a 9.185541
_cell_length_b 9.185541
_cell_length_c 29.199258
_cell_angle_alpha 90.000000
_cell_angle_beta 90.000000
_cell_angle_gamma 90.000000
_cell_volume 2463.662967
_symmetry_space_group_name_H-M "P 42/M M C"
_symmetry_group_IT_number 131
_symmetry_cell_setting 'tetragonal'
loop_
_space_group_symop_operation_xyz
x,y,z
-x,-y,z
-y,x,1/2+z
y,-x,1/2+z
-x,y,-z
x,-y,-z
y,x,1/2-z
-y,-x,1/2-z
-x,-y,-z
x,y,-z
y,-x,1/2-z
-y,x,1/2-z
x,-y,z
-x,y,z
-y,-x,1/2+z
y,x,1/2+z
loop_
_atom_site_type_symbol
_atom_site_label
_atom_site_fract_x
_atom_site_fract_y
_atom_site_fract_z
Si Si1 0.172810 0.671425 0.207683
Si Si2 0.500000 0.673495 0.946056
Si Si3 0.335718 0.830520 0.128178
O O1 0.255250 0.744751 0.250000
O O2 0.206342 0.500000 0.205330
O O3 0.226484 0.749764 0.161533
O O4 0.000000 0.688867 0.213659
O O5 0.500000 0.500000 0.938407
O O6 0.636411 0.747675 0.919783
O O7 0.500000 0.701918 0.000000
O O8 0.500000 0.825159 0.149680
O O9 0.299295 0.000000 0.121643
#
# Coordination Sequence:
#
# PCOD9566858 Si02
#       3
#    16   8  16
#     4  11  23  36  52  75 105 141 181 222 268 324
#     4   9  17  31  55  83 109 139 177 223 271 318
#     4   9  19  33  52  78 106 136 175 218 265 319
#
# _framework density 16.235987999999999
#
# number of rings (size 3 to 8) (size 9 to 14) (size 15 to 20)
#    1.200    1.000    0.000    3.600    0.000    9.600 
#    0.000    0.000    0.000    1.200    0.000    8.400 
#    0.000    0.000    0.000    0.000    0.000    0.000 
#
# Total GULP energy -222747.274313 kJ/mol
# GULP energy per Si atom -5568.681858 kJ/mol
# Density = 1.619903 g / cm^3
# Si number density = 16.235988 Si / 1000 Ang^3
#
#
#
# Elastic Constant Matrix: (Units=GPa)
#
#
# Indices 1 2 3 4 5 6 
#
# 1 99.6360 71.0545 68.6864 0.0000 0.0000 0.0000
# 2 71.0545 99.6347 68.6874 0.0000 0.0000 0.0000
# 3 68.6864 68.6874 132.8747 0.0000 0.0000 0.0000
# 4 0.0000 0.0000 0.0000 -4.6948 0.0000 0.0000
# 5 0.0000 0.0000 0.0000 0.0000 -4.6929 0.0000
# 6 0.0000 0.0000 0.0000 0.0000 0.0000 22.8225
#
#
#
# Elastic Compliance Matrix: (Units=1/GPa)
#
#
# Indices 1 2 3 4 5 6 
#
# 1 0.022510 -0.012478 -0.005186 0.000000 0.000000 0.000000
# 2 -0.012478 0.022511 -0.005186 0.000000 0.000000 0.000000
# 3 -0.005186 -0.005186 0.012888 0.000000 0.000000 0.000000
# 4 0.000000 0.000000 0.000000 -0.213002 0.000000 0.000000
# 5 0.000000 0.000000 0.000000 0.000000 -0.213090 0.000000
# 6 0.000000 0.000000 0.000000 0.000000 0.000000 0.043816
#
#
# Mechanical properties :
#
#
# Convention : Reuss Voigt Hill
#
# Bulk Modulus (GPa) = 81.91261 83.22246 82.56754
# Shear Modulus (GPa) = -18.20852 10.93477 -3.63688
#
# Velocity S-wave (km/s) = -3.35250 2.59798 -1.49829
# Velocity P-wave (km/s) = 5.96449 7.76973 6.92617
#
# Compressibility (1/GPa) = 0.01220813
#
# Stress axis : x y z
#
# Youngs Moduli (GPa) = 44.42470 44.42302 77.59440
#
# Poissons Ratio (x) = 0.55431 0.40238
# Poissons Ratio (y) = 0.55433 0.40244
# Poissons Ratio (z) = 0.23037 0.23040
#
# Static dielectric constant tensor:
#      x y z
#    x 1.539650 0.000000 0.000000 
#    y 0.000000 1.539650 0.000000 
#    z 0.000000 0.000000 1.528240 
# 
# From -- ./inp_files/12617.got.cif
#   From: 2010.05.17/outbox.cif.g08.bks.cpg/sg131_7_cif.got.tgz:12617.got - 2010.05.20 12:21:01.
