data_PCOD9567139
_publ_section_title
;
Structure prediction by ZEFSAII (Michael W. Deem and Ramdas Pophale) SiO2 
 PCOD9567139
Probable space group: P 42/M C M
;
_chemical_formula_sum "Si O2"
_cell_formula_units_Z 48
_cell_length_a 9.472821
_cell_length_b 9.472821
_cell_length_c 28.695215
_cell_angle_alpha 90.000000
_cell_angle_beta 90.000000
_cell_angle_gamma 90.000000
_cell_volume 2574.946113
_symmetry_space_group_name_H-M "P 42/M C M"
_symmetry_group_IT_number 132
_symmetry_cell_setting 'tetragonal'
loop_
_space_group_symop_operation_xyz
x,y,z
-y,x,1/2+z
-x,-y,z
y,-x,1/2+z
x,-y,1/2-z
-x,y,1/2-z
y,x,-z
-y,-x,-z
-x,-y,-z
y,-x,1/2-z
x,y,-z
-y,x,1/2-z
-x,y,1/2+z
x,-y,1/2+z
-y,-x,z
y,x,z
loop_
_atom_site_type_symbol
_atom_site_label
_atom_site_fract_x
_atom_site_fract_y
_atom_site_fract_z
Si Si1 0.304319 0.074491 0.098851
Si Si2 0.764183 0.006192 0.199544
Si Si3 0.800845 0.575656 0.555197
O O1 0.157064 0.157064 0.092911
O O2 0.318932 0.031496 0.152987
O O3 0.431517 0.175118 0.082847
O O4 0.324365 0.933099 0.068791
O O5 0.888063 0.888063 0.203235
O O6 0.690671 0.000000 0.250000
O O7 0.844999 0.155001 0.192863
O O8 0.805258 0.547212 0.500000
O O9 0.657957 0.657957 0.566348
#
# Coordination Sequence:
#
# PCOD9567139 Si02
#       3
#    16  16  16
#     4  10  19  33  55  78  99 130 174 214 248 299
#     4   8  14  26  47  77 108 132 159 203 257 306
#     4  10  22  37  50  71 106 140 170 211 261 306
#
# _framework density 18.641166999999999
#
# number of rings (size 3 to 8) (size 9 to 14) (size 15 to 20)
#    0.000    2.667    0.000    4.000    0.000    5.333 
#    0.000    6.667    0.000    0.000    0.000    0.000 
#    0.000   21.333    0.000    0.000    0.000    0.000 
#
# Total GULP energy -267577.180754 kJ/mol
# GULP energy per Si atom -5574.524599 kJ/mol
# Density = 1.859874 g / cm^3
# Si number density = 18.641167 Si / 1000 Ang^3
#
#
#
# Elastic Constant Matrix: (Units=GPa)
#
#
# Indices 1 2 3 4 5 6 
#
# 1 29.3245 13.7123 32.8943 0.0000 0.0000 0.0000
# 2 13.7123 29.3245 32.8943 0.0000 0.0000 0.0000
# 3 32.8943 32.8943 128.3017 0.0000 0.0000 0.0000
# 4 0.0000 0.0000 0.0000 26.8665 0.0000 0.0000
# 5 0.0000 0.0000 0.0000 0.0000 26.8665 0.0000
# 6 0.0000 0.0000 0.0000 0.0000 0.0000 25.3030
#
#
#
# Elastic Compliance Matrix: (Units=1/GPa)
#
#
# Indices 1 2 3 4 5 6 
#
# 1 0.051132 -0.012920 -0.009797 0.000000 0.000000 0.000000
# 2 -0.012920 0.051132 -0.009797 0.000000 0.000000 0.000000
# 3 -0.009797 -0.009797 0.012818 0.000000 0.000000 0.000000
# 4 0.000000 0.000000 0.000000 0.037221 0.000000 0.000000
# 5 0.000000 0.000000 0.000000 0.000000 0.037221 0.000000
# 6 0.000000 0.000000 0.000000 0.000000 0.000000 0.039521
#
#
# Mechanical properties :
#
#
# Convention : Reuss Voigt Hill
#
# Bulk Modulus (GPa) = 19.97836 38.43917 29.20876
# Shear Modulus (GPa) = 16.08969 22.97053 19.53011
#
# Velocity S-wave (km/s) = 2.94109 3.51415 3.24031
# Velocity P-wave (km/s) = 4.71953 6.09352 5.45000
#
# Compressibility (1/GPa) = 0.05005417
#
# Stress axis : x y z
#
# Youngs Moduli (GPa) = 19.55711 19.55711 78.01750
#
# Poissons Ratio (x) = 0.25268 0.76433
# Poissons Ratio (y) = 0.25268 0.76433
# Poissons Ratio (z) = 0.19160 0.19160
#
# Static dielectric constant tensor:
#      x y z
#    x 1.652510 0.000000 0.000000 
#    y 0.000000 1.652510 0.000000 
#    z 0.000000 0.000000 1.661210 
# 
# From -- ./inp_files/10220.got.cif
#   From: 2010.05.17/outbox.cif.g08.bks.cpg/sg132_6_cif.got.tgz:10220.got - 2010.05.20 12:30:18.
