data_PCOD9567689
_publ_section_title
;
Structure prediction by ZEFSAII (Michael W. Deem and Ramdas Pophale) SiO2 
 PCOD9567689
Probable space group: P 42/N B C
;
_chemical_formula_sum "Si O2"
_cell_formula_units_Z 80
_cell_length_a 21.200950
_cell_length_b 21.200950
_cell_length_c 8.809879
_cell_angle_alpha 90.000000
_cell_angle_beta 90.000000
_cell_angle_gamma 90.000000
_cell_volume 3959.866888
_symmetry_space_group_name_H-M "P 42/N B C"
_symmetry_group_IT_number 133
_space_group.IT_coordinate_system_code '2'
_symmetry_cell_setting 'tetragonal'
loop_
_space_group_symop_operation_xyz
x,y,z
1/2-y,x,1/2+z
1/2-x,1/2-y,z
y,1/2-x,1/2+z
x,1/2-y,-z
1/2-x,y,-z
y,x,1/2-z
1/2-y,1/2-x,1/2-z
-x,-y,-z
1/2+y,-x,1/2-z
1/2+x,1/2+y,-z
-y,1/2+x,1/2-z
-x,1/2+y,z
1/2+x,-y,z
-y,-x,1/2+z
1/2+y,1/2+x,1/2+z
loop_
_atom_site_type_symbol
_atom_site_label
_atom_site_fract_x
_atom_site_fract_y
_atom_site_fract_z
Si Si1 0.250000 0.646767 0.500000
Si Si2 0.750000 0.250000 0.250000
Si Si3 0.750000 0.750000 0.750000
Si Si4 0.032220 0.927527 0.215054
Si Si5 0.144070 0.952740 0.414758
Si Si6 0.951173 0.750000 0.000000
Si Si7 0.332458 0.066139 0.210246
Si Si8 0.250000 0.140491 0.000000
O O1 0.263678 0.690923 0.642953
O O2 0.311398 0.605049 0.463936
O O3 0.754650 0.811134 0.858696
O O4 0.987167 0.987167 0.250000
O O5 0.003760 0.862878 0.291543
O O6 0.103631 0.940378 0.265720
O O7 0.032162 0.909358 0.039047
O O8 0.194142 0.009302 0.419868
O O9 0.922033 0.784701 0.147464
O O10 0.391865 0.108136 0.250000
O O11 0.304558 0.092719 0.054172
#
# Coordination Sequence:
#
# PCOD9567689 Si02
#       8
#     8   4   4  16  16   8  16   8
#     4  10  20  35  58  86 114 157 188 242 306 350
#     4  10  20  34  52  86 116 142 196 234 292 374
#     4  10  24  38  60  90 116 162 212 246 312 354
#     4  10  21  38  60  86 116 158 200 251 306 359
#     4  10  20  38  60  81 119 152 197 248 298 366
#     4   9  22  39  56  86 118 157 192 249 310 354
#     4  10  22  38  59  86 123 155 203 253 304 367
#     4  11  22  38  60  88 120 161 200 254 298 361
#
# _framework density 20.2027
#
# number of rings (size 3 to 8) (size 9 to 14) (size 15 to 20)
#    0.000    2.000    1.000    1.800    2.800    1.600 
#    0.000    4.000    2.200    0.000    0.000    0.000 
#    0.000    0.000    0.000    0.000    0.000    0.000 
#
# Total GULP energy -445608.446767 kJ/mol
# GULP energy per Si atom -5570.105585 kJ/mol
# Density = 2.015672 g / cm^3
# Si number density = 20.202700 Si / 1000 Ang^3
#
#
#
# Elastic Constant Matrix: (Units=GPa)
#
#
# Indices 1 2 3 4 5 6 
#
# 1 60.2024 9.5213 15.8181 0.0000 0.0000 0.0000
# 2 9.5213 60.2046 15.8186 0.0000 0.0000 0.0000
# 3 15.8181 15.8186 50.1853 0.0000 0.0000 0.0000
# 4 0.0000 0.0000 0.0000 16.4052 0.0000 0.0000
# 5 0.0000 0.0000 0.0000 0.0000 16.3953 0.0000
# 6 0.0000 0.0000 0.0000 0.0000 0.0000 12.5093
#
#
#
# Elastic Compliance Matrix: (Units=1/GPa)
#
#
# Indices 1 2 3 4 5 6 
#
# 1 0.018233 -0.001498 -0.005275 0.000000 0.000000 0.000000
# 2 -0.001498 0.018233 -0.005275 0.000000 0.000000 0.000000
# 3 -0.005275 -0.005275 0.023252 0.000000 0.000000 0.000000
# 4 0.000000 0.000000 0.000000 0.060956 0.000000 0.000000
# 5 0.000000 0.000000 0.000000 0.000000 0.060993 0.000000
# 6 0.000000 0.000000 0.000000 0.000000 0.000000 0.079940
#
#
# Mechanical properties :
#
#
# Convention : Reuss Voigt Hill
#
# Bulk Modulus (GPa) = 28.07211 28.10091 28.08651
# Shear Modulus (GPa) = 16.80236 17.69092 17.24664
#
# Velocity S-wave (km/s) = 2.88703 2.96238 2.92495
# Velocity P-wave (km/s) = 5.00386 5.06366 5.03385
#
# Compressibility (1/GPa) = 0.03562255
#
# Stress axis : x y z
#
# Youngs Moduli (GPa) = 54.84412 54.84601 43.00792
#
# Poissons Ratio (x) = 0.08214 0.22687
# Poissons Ratio (y) = 0.08214 0.22687
# Poissons Ratio (z) = 0.28931 0.28931
#
# Static dielectric constant tensor:
#      x y z
#    x 1.746660 0.000000 0.000000 
#    y 0.000000 1.746660 0.000000 
#    z 0.000000 0.000000 1.729430 
# 
# From -- ./inp_files/1891.got.cif
#   From: 2010.05.17/outbox.cif.g08.bks.cpg/sg133_1_cif.got.tgz:1891.got - 2010.05.20 12:37:36.
