data_PCOD9567618
_publ_section_title
;
Structure prediction by ZEFSAII (Michael W. Deem and Ramdas Pophale) SiO2 
 PCOD9567618
Probable space group: P 42/N B C
;
_chemical_formula_sum "Si O2"
_cell_formula_units_Z 120
_cell_length_a 17.317906
_cell_length_b 17.317906
_cell_length_c 20.315091
_cell_angle_alpha 90.000000
_cell_angle_beta 90.000000
_cell_angle_gamma 90.000000
_cell_volume 6092.696265
_symmetry_space_group_name_H-M "P 42/N B C"
_symmetry_group_IT_number 133
_space_group.IT_coordinate_system_code '2'
_symmetry_cell_setting 'tetragonal'
loop_
_space_group_symop_operation_xyz
x,y,z
1/2-y,x,1/2+z
1/2-x,1/2-y,z
y,1/2-x,1/2+z
x,1/2-y,-z
1/2-x,y,-z
y,x,1/2-z
1/2-y,1/2-x,1/2-z
-x,-y,-z
1/2+y,-x,1/2-z
1/2+x,1/2+y,-z
-y,1/2+x,1/2-z
-x,1/2+y,z
1/2+x,-y,z
-y,-x,1/2+z
1/2+y,1/2+x,1/2+z
loop_
_atom_site_type_symbol
_atom_site_label
_atom_site_fract_x
_atom_site_fract_y
_atom_site_fract_z
Si Si1 0.894015 0.814737 0.055963
Si Si2 0.771220 0.497985 0.668863
Si Si3 0.250000 0.250000 0.861119
Si Si4 0.089919 0.494331 0.021702
Si Si5 0.112443 0.484645 0.881613
Si Si6 0.581616 0.465821 0.268721
Si Si7 0.098730 0.201189 0.281651
Si Si8 0.537090 0.393553 0.131095
O O1 0.818887 0.780130 0.092480
O O2 0.886025 0.905217 0.036104
O O3 0.962178 0.816023 0.109331
O O4 0.911592 0.750000 0.000000
O O5 0.829718 0.451802 0.714702
O O6 0.746058 0.565036 0.720041
O O7 0.698448 0.456117 0.636117
O O8 0.270335 0.177280 0.814994
O O9 0.090408 0.554770 0.082390
O O10 0.131884 0.516137 0.953505
O O11 0.000000 0.500000 0.000000
O O12 0.062621 0.539690 0.834792
O O13 0.187207 0.460440 0.840579
O O14 0.052681 0.411964 0.888427
O O15 0.553185 0.553185 0.250000
O O16 0.553967 0.419654 0.205391
O O17 0.117987 0.117987 0.250000
#
# Coordination Sequence:
#
# PCOD9567618 Si02
#       8
#    16  16   8  16  16  16  16  16
#     4  12  24  38  54  85 127 166 206 251 307 377
#     4  12  23  34  61  85 114 159 205 263 309 370
#     4  12  26  36  52  86 129 173 206 236 300 388
#     4  10  21  36  59  81 117 164 207 259 306 360
#     4  10  18  39  57  80 113 166 200 249 308 370
#     4  10  21  35  59  87 117 153 209 259 311 371
#     4  12  21  36  56  81 121 167 204 239 300 371
#     4  10  19  37  55  84 114 149 205 257 311 362
#
# _framework density 19.695713000000001
#
# number of rings (size 3 to 8) (size 9 to 14) (size 15 to 20)
#    0.000    1.067    4.000    5.600    3.733    0.000 
#    0.000    0.000    0.000    0.400    0.000    0.000 
#    0.000    0.000    1.867    0.000    0.000    0.000 
#
# Total GULP energy -668481.801565 kJ/mol
# GULP energy per Si atom -5570.681680 kJ/mol
# Density = 1.965088 g / cm^3
# Si number density = 19.695713 Si / 1000 Ang^3
#
#
#
# Elastic Constant Matrix: (Units=GPa)
#
#
# Indices 1 2 3 4 5 6 
#
# 1 54.1860 18.2755 29.2307 0.0000 0.0000 0.0000
# 2 18.2755 54.1860 29.2307 0.0000 0.0000 0.0000
# 3 29.2307 29.2307 132.7665 0.0000 0.0000 0.0000
# 4 0.0000 0.0000 0.0000 19.2985 0.0000 0.0000
# 5 0.0000 0.0000 0.0000 0.0000 19.2985 0.0000
# 6 0.0000 0.0000 0.0000 0.0000 0.0000 16.0229
#
#
#
# Elastic Compliance Matrix: (Units=1/GPa)
#
#
# Indices 1 2 3 4 5 6 
#
# 1 0.022314 -0.005533 -0.003695 0.000000 0.000000 0.000000
# 2 -0.005533 0.022314 -0.003695 0.000000 0.000000 0.000000
# 3 -0.003695 -0.003695 0.009159 0.000000 0.000000 0.000000
# 4 0.000000 0.000000 0.000000 0.051817 0.000000 0.000000
# 5 0.000000 0.000000 0.000000 0.000000 0.051817 0.000000
# 6 0.000000 0.000000 0.000000 0.000000 0.000000 0.062411
#
#
# Mechanical properties :
#
#
# Convention : Reuss Voigt Hill
#
# Bulk Modulus (GPa) = 35.78747 43.84584 39.81666
# Shear Modulus (GPa) = 19.60851 21.88410 20.74630
#
# Velocity S-wave (km/s) = 3.15869 3.33695 3.24904
# Velocity P-wave (km/s) = 5.61362 6.09565 5.85959
#
# Compressibility (1/GPa) = 0.02794274
#
# Stress axis : x y z
#
# Youngs Moduli (GPa) = 44.81464 44.81464 109.18341
#
# Poissons Ratio (x) = 0.24795 0.40340
# Poissons Ratio (y) = 0.24795 0.40340
# Poissons Ratio (z) = 0.16558 0.16558
#
# Static dielectric constant tensor:
#      x y z
#    x 1.739500 0.000000 0.000000 
#    y 0.000000 1.739500 0.000000 
#    z 0.000000 0.000000 1.789760 
# 
# From -- ./inp_files/6757.got.cif
#   From: 2010.05.17/outbox.cif.g08.bks.cpg/sg133_4_cif.got.tgz:6757.got - 2010.05.20 12:37:36.
