data_PCOD9567894
_publ_section_title
;
Structure prediction by ZEFSAII (Michael W. Deem and Ramdas Pophale) SiO2 
 PCOD9567894
Probable space group: P 42/N B C
;
_chemical_formula_sum "Si O2"
_cell_formula_units_Z 88
_cell_length_a 11.722312
_cell_length_b 11.722312
_cell_length_c 27.361684
_cell_angle_alpha 90.000000
_cell_angle_beta 90.000000
_cell_angle_gamma 90.000000
_cell_volume 3759.840101
_symmetry_space_group_name_H-M "P 42/N B C"
_symmetry_group_IT_number 133
_space_group.IT_coordinate_system_code '2'
_symmetry_cell_setting 'tetragonal'
loop_
_space_group_symop_operation_xyz
x,y,z
1/2-y,x,1/2+z
1/2-x,1/2-y,z
y,1/2-x,1/2+z
x,1/2-y,-z
1/2-x,y,-z
y,x,1/2-z
1/2-y,1/2-x,1/2-z
-x,-y,-z
1/2+y,-x,1/2-z
1/2+x,1/2+y,-z
-y,1/2+x,1/2-z
-x,1/2+y,z
1/2+x,-y,z
-y,-x,1/2+z
1/2+y,1/2+x,1/2+z
loop_
_atom_site_type_symbol
_atom_site_label
_atom_site_fract_x
_atom_site_fract_y
_atom_site_fract_z
Si Si1 0.997997 0.349184 0.069861
Si Si2 0.250000 0.750000 0.432411
Si Si3 0.333748 0.344818 0.388220
Si Si4 0.995711 0.000437 0.332120
Si Si5 0.137696 0.895313 0.757437
Si Si6 0.308164 0.510809 0.947875
O O1 0.079475 0.239371 0.073884
O O2 0.070378 0.449139 0.044005
O O3 0.872787 0.311411 0.051724
O O4 0.995158 0.402859 0.124740
O O5 0.369917 0.689529 0.418121
O O6 0.250000 0.250000 0.365003
O O7 0.396022 0.429056 0.351280
O O8 0.426770 0.271842 0.417234
O O9 0.940700 0.060005 0.285735
O O10 0.037430 0.881058 0.308273
O O11 0.264474 0.897036 0.736593
O O12 0.250000 0.528957 0.000000
#
# Coordination Sequence:
#
# PCOD9567894 Si02
#       6
#    16   8  16  16  16  16
#     4  11  25  44  77 106 146 192 250 305 372 446
#     4  12  25  46  74 110 145 198 246 309 366 444
#     4  10  23  43  68 103 137 194 243 303 371 444
#     4  11  22  43  65 103 138 181 246 302 366 445
#     4  10  24  41  65  96 139 187 231 300 367 444
#     4  11  26  49  71 108 153 197 250 310 377 441
#
# _framework density 23.405251
#
# number of rings (size 3 to 8) (size 9 to 14) (size 15 to 20)
#    0.000    1.273    1.818    2.455    5.091    6.909 
#    3.273    0.909    0.000    0.000    0.000    0.000 
#    0.000    0.000    0.000    0.000    0.000    0.000 
#
# Total GULP energy -490342.342849 kJ/mol
# GULP energy per Si atom -5572.072078 kJ/mol
# Density = 2.335198 g / cm^3
# Si number density = 23.405251 Si / 1000 Ang^3
#
#
#
# Elastic Constant Matrix: (Units=GPa)
#
#
# Indices 1 2 3 4 5 6 
#
# 1 140.1494 38.7051 18.7891 0.0000 0.0000 0.0000
# 2 38.7051 140.1494 18.7891 0.0000 0.0000 0.0000
# 3 18.7891 18.7891 74.8350 0.0000 0.0000 0.0000
# 4 0.0000 0.0000 0.0000 17.8448 0.0000 0.0000
# 5 0.0000 0.0000 0.0000 0.0000 17.8448 0.0000
# 6 0.0000 0.0000 0.0000 0.0000 0.0000 -10.3594
#
#
#
# Elastic Compliance Matrix: (Units=1/GPa)
#
#
# Indices 1 2 3 4 5 6 
#
# 1 0.007880 -0.001978 -0.001482 0.000000 0.000000 0.000000
# 2 -0.001978 0.007880 -0.001482 0.000000 0.000000 0.000000
# 3 -0.001482 -0.001482 0.014107 0.000000 0.000000 0.000000
# 4 0.000000 0.000000 0.000000 0.056039 0.000000 0.000000
# 5 0.000000 0.000000 0.000000 0.000000 0.056039 0.000000
# 6 0.000000 0.000000 0.000000 0.000000 0.000000 -0.096531
#
#
# Mechanical properties :
#
#
# Convention : Reuss Voigt Hill
#
# Bulk Modulus (GPa) = 50.03992 56.41117 53.22555
# Shear Modulus (GPa) = 80.69966 23.65606 52.17786
#
# Velocity S-wave (km/s) = 5.87828 3.18262 4.72669
# Velocity P-wave (km/s) = 8.21574 6.13675 7.25114
#
# Compressibility (1/GPa) = 0.01998404
#
# Stress axis : x y z
#
# Youngs Moduli (GPa) = 126.90249 126.90249 70.88730
#
# Poissons Ratio (x) = 0.25096 0.10505
# Poissons Ratio (y) = 0.25096 0.10505
# Poissons Ratio (z) = 0.18807 0.18807
#
# Static dielectric constant tensor:
#      x y z
#    x 1.826310 0.000000 0.000000 
#    y 0.000000 1.826310 0.000000 
#    z 0.000000 0.000000 1.876190 
# 
# From -- ./inp_files/7956.got.cif
#   From: 2010.05.17/outbox.cif.g08.bks.cpg/sg133_4_cif.got.tgz:7956.got - 2010.05.20 12:37:36.
