data_PCOD9567287
_publ_section_title
;
Structure prediction by ZEFSAII (Michael W. Deem and Ramdas Pophale) SiO2 
 PCOD9567287
Probable space group: P 42/M C M
;
_chemical_formula_sum "Si O2"
_cell_formula_units_Z 88
_cell_length_a 12.708240
_cell_length_b 12.708240
_cell_length_c 27.937656
_cell_angle_alpha 90.000000
_cell_angle_beta 90.000000
_cell_angle_gamma 90.000000
_cell_volume 4511.913673
_symmetry_space_group_name_H-M "P 42/M C M"
_symmetry_group_IT_number 132
_symmetry_cell_setting 'tetragonal'
loop_
_space_group_symop_operation_xyz
x,y,z
-y,x,1/2+z
-x,-y,z
y,-x,1/2+z
x,-y,1/2-z
-x,y,1/2-z
y,x,-z
-y,-x,-z
-x,-y,-z
y,-x,1/2-z
x,y,-z
-y,x,1/2-z
-x,y,1/2+z
x,-y,1/2+z
-y,-x,z
y,x,z
loop_
_atom_site_type_symbol
_atom_site_label
_atom_site_fract_x
_atom_site_fract_y
_atom_site_fract_z
Si Si1 0.113468 0.448866 0.370058
Si Si2 0.009952 0.308999 0.550808
Si Si3 0.206524 0.385192 0.268798
Si Si4 0.606773 0.219140 0.555949
Si Si5 0.087636 0.087636 0.574632
Si Si6 0.910570 0.910570 0.315507
Si Si7 0.273226 0.000000 0.750000
O O1 0.074193 0.362196 0.407254
O O2 0.169831 0.403078 0.323551
O O3 0.190153 0.523475 0.402202
O O4 0.000000 0.500000 0.355451
O O5 0.036045 0.362101 0.500000
O O6 0.042589 0.189725 0.550381
O O7 0.885355 0.320774 0.557241
O O8 0.239261 0.500000 0.250000
O O9 0.297620 0.297620 0.265139
O O10 0.102493 0.344524 0.239959
O O11 0.567648 0.226780 0.500000
O O12 0.677932 0.322069 0.565323
O O13 0.112747 0.112747 0.629804
O O14 0.000000 0.000000 0.575012
O O15 0.806668 0.957428 0.290546
O O16 0.000000 0.000000 0.311480
#
# Coordination Sequence:
#
# PCOD9567287 Si02
#       7
#    16  16  16  16   8   8   8
#     4  10  21  39  62  92 122 156 207 262 317 376
#     4  10  20  34  55  85 125 166 198 242 304 374
#     4  12  27  45  67  92 126 168 216 272 329 391
#     4   9  18  35  61  90 121 159 207 258 307 365
#     4  11  23  32  47  82 127 168 200 236 293 380
#     4  11  20  35  60  93 129 165 204 264 331 380
#     4  12  20  42  66  94 120 159 213 268 326 390
#
# _framework density 19.503920000000001
#
# number of rings (size 3 to 8) (size 9 to 14) (size 15 to 20)
#    0.000    1.455    1.818    3.818    1.273    6.000 
#    0.000    0.000    0.000    0.000    0.000    1.273 
#    0.000    0.000    0.000    0.000    0.000    0.000 
#
# Total GULP energy -490980.856480 kJ/mol
# GULP energy per Si atom -5579.327915 kJ/mol
# Density = 1.945953 g / cm^3
# Si number density = 19.503920 Si / 1000 Ang^3
#
#
#
# Elastic Constant Matrix: (Units=GPa)
#
#
# Indices 1 2 3 4 5 6 
#
# 1 90.5716 54.6005 40.1701 0.0000 0.0000 0.0000
# 2 54.6005 90.5716 40.1701 0.0000 0.0000 0.0000
# 3 40.1701 40.1701 94.3301 0.0000 0.0000 0.0000
# 4 0.0000 0.0000 0.0000 27.3645 0.0000 0.0000
# 5 0.0000 0.0000 0.0000 0.0000 27.3645 0.0000
# 6 0.0000 0.0000 0.0000 0.0000 0.0000 30.4691
#
#
#
# Elastic Compliance Matrix: (Units=1/GPa)
#
#
# Indices 1 2 3 4 5 6 
#
# 1 0.018406 -0.009394 -0.003838 0.000000 0.000000 0.000000
# 2 -0.009394 0.018406 -0.003838 0.000000 0.000000 0.000000
# 3 -0.003838 -0.003838 0.013870 0.000000 0.000000 0.000000
# 4 0.000000 0.000000 0.000000 0.036544 0.000000 0.000000
# 5 0.000000 0.000000 0.000000 0.000000 0.036544 0.000000
# 6 0.000000 0.000000 0.000000 0.000000 0.000000 0.032820
#
#
# Mechanical properties :
#
#
# Convention : Reuss Voigt Hill
#
# Bulk Modulus (GPa) = 60.44883 60.59500 60.52191
# Shear Modulus (GPa) = 25.47858 26.40844 25.94351
#
# Velocity S-wave (km/s) = 3.61824 3.68367 3.65110
# Velocity P-wave (km/s) = 6.96534 7.01628 6.99086
#
# Compressibility (1/GPa) = 0.01654292
#
# Stress axis : x y z
#
# Youngs Moduli (GPa) = 54.32957 54.32957 72.09937
#
# Poissons Ratio (x) = 0.51037 0.27671
# Poissons Ratio (y) = 0.51037 0.27671
# Poissons Ratio (z) = 0.20851 0.20851
#
# Static dielectric constant tensor:
#      x y z
#    x 1.676370 0.000000 0.000000 
#    y 0.000000 1.676370 0.000000 
#    z 0.000000 0.000000 1.732520 
# 
# From -- ./inp_files/10817.got.cif
#   From: 2010.05.17/outbox.cif.g08.bks.cpg/sg132_6_cif.got.tgz:10817.got - 2010.05.20 12:30:18.
