data_PCOD9567135
_publ_section_title
;
Structure prediction by ZEFSAII (Michael W. Deem and Ramdas Pophale) SiO2 
 PCOD9567135
Probable space group: P 42/M C M
;
_chemical_formula_sum "Si O2"
_cell_formula_units_Z 96
_cell_length_a 24.511961
_cell_length_b 24.511961
_cell_length_c 8.159591
_cell_angle_alpha 90.000000
_cell_angle_beta 90.000000
_cell_angle_gamma 90.000000
_cell_volume 4902.577912
_symmetry_space_group_name_H-M "P 42/M C M"
_symmetry_group_IT_number 132
_symmetry_cell_setting 'tetragonal'
loop_
_space_group_symop_operation_xyz
x,y,z
-y,x,1/2+z
-x,-y,z
y,-x,1/2+z
x,-y,1/2-z
-x,y,1/2-z
y,x,-z
-y,-x,-z
-x,-y,-z
y,-x,1/2-z
x,y,-z
-y,x,1/2-z
-x,y,1/2+z
x,-y,1/2+z
-y,-x,z
y,x,z
loop_
_atom_site_type_symbol
_atom_site_label
_atom_site_fract_x
_atom_site_fract_y
_atom_site_fract_z
Si Si1 0.558906 0.076581 0.310122
Si Si2 0.758502 0.676470 0.695642
Si Si3 0.746832 0.141183 0.686234
Si Si4 0.064051 0.847628 0.697800
Si Si5 0.943659 0.672764 0.314468
Si Si6 0.558287 0.200843 0.198675
O O1 0.500000 0.058242 0.250000
O O2 0.567899 0.063171 0.500000
O O3 0.607916 0.055186 0.199363
O O4 0.559360 0.141707 0.283495
O O5 0.754312 0.671960 0.500000
O O6 0.703353 0.703353 0.762779
O O7 0.805975 0.721259 0.728203
O O8 0.771267 0.615085 0.751997
O O9 0.760456 0.155176 0.500000
O O10 0.797442 0.104332 0.753344
O O11 0.695278 0.101330 0.694142
O O12 0.063532 0.844577 0.500000
O O13 0.096447 0.903554 0.744833
O O14 0.000000 0.844777 0.750000
O O15 0.931692 0.689209 0.500000
O O16 0.000000 0.696179 0.250000
O O17 0.500000 0.226534 0.250000
O O18 0.558869 0.193968 0.000000
#
# Coordination Sequence:
#
# PCOD9567135 Si02
#       6
#    16  16  16  16  16  16
#     4  11  21  35  54  76 103 139 183 230 279 329
#     4  10  21  36  56  84 117 152 190 232 278 330
#     4  11  22  38  59  83 111 146 182 224 278 334
#     4  10  23  42  62  86 113 140 175 220 273 336
#     4  12  24  38  54  76 105 140 184 233 279 331
#     4  10  19  33  54  79 111 150 190 232 277 330
#
# _framework density 19.581534999999999
#
# number of rings (size 3 to 8) (size 9 to 14) (size 15 to 20)
#    0.000    1.333    1.667    6.000    0.000    5.167 
#    0.000    2.500    0.000    0.000    0.000    0.000 
#    0.000    0.333    0.000    4.167    0.000    0.000 
#
# Total GULP energy -535569.560982 kJ/mol
# GULP energy per Si atom -5578.849594 kJ/mol
# Density = 1.953697 g / cm^3
# Si number density = 19.581535 Si / 1000 Ang^3
#
#
#
# Elastic Constant Matrix: (Units=GPa)
#
#
# Indices 1 2 3 4 5 6 
#
# 1 104.9000 75.3396 8.2191 0.0000 0.0000 0.0000
# 2 75.3396 104.9000 8.2191 0.0000 0.0000 0.0000
# 3 8.2191 8.2191 61.9117 0.0000 0.0000 0.0000
# 4 0.0000 0.0000 0.0000 164.8605 0.0000 0.0000
# 5 0.0000 0.0000 0.0000 0.0000 164.8605 0.0000
# 6 0.0000 0.0000 0.0000 0.0000 0.0000 -157.9825
#
#
#
# Elastic Compliance Matrix: (Units=1/GPa)
#
#
# Indices 1 2 3 4 5 6 
#
# 1 0.019723 -0.014106 -0.000746 0.000000 0.000000 0.000000
# 2 -0.014106 0.019723 -0.000746 0.000000 0.000000 0.000000
# 3 -0.000746 -0.000746 0.016350 0.000000 0.000000 0.000000
# 4 0.000000 0.000000 0.000000 0.006066 0.000000 0.000000
# 5 0.000000 0.000000 0.000000 0.000000 0.006066 0.000000
# 6 0.000000 0.000000 0.000000 0.000000 0.000000 -0.006330
#
#
# Mechanical properties :
#
#
# Convention : Reuss Voigt Hill
#
# Bulk Modulus (GPa) = 40.65035 50.58525 45.61780
# Shear Modulus (GPa) = 49.50887 46.34330 47.92609
#
# Velocity S-wave (km/s) = 5.03372 4.87014 4.95260
# Velocity P-wave (km/s) = 7.38844 7.58377 7.48674
#
# Compressibility (1/GPa) = 0.02460003
#
# Stress axis : x y z
#
# Youngs Moduli (GPa) = 50.70327 50.70327 61.16209
#
# Poissons Ratio (x) = 0.71524 0.04560
# Poissons Ratio (y) = 0.71524 0.04560
# Poissons Ratio (z) = 0.03780 0.03780
#
# Static dielectric constant tensor:
#      x y z
#    x 1.719410 0.000000 0.000000 
#    y 0.000000 1.719410 0.000000 
#    z 0.000000 0.000000 1.697430 
# 
# From -- ./inp_files/1735.got.cif
#   From: 2010.05.17/outbox.cif.g08.bks.cpg/sg132_1_cif.got.tgz:1735.got - 2010.05.20 12:30:18.
