data_PCOD9567738
_publ_section_title
;
Structure prediction by ZEFSAII (Michael W. Deem and Ramdas Pophale) SiO2 
 PCOD9567738
Probable space group: P 42/N B C
;
_chemical_formula_sum "Si O2"
_cell_formula_units_Z 120
_cell_length_a 27.482923
_cell_length_b 27.482923
_cell_length_c 8.092990
_cell_angle_alpha 90.000000
_cell_angle_beta 90.000000
_cell_angle_gamma 90.000000
_cell_volume 6112.724828
_symmetry_space_group_name_H-M "P 42/N B C"
_symmetry_group_IT_number 133
_space_group.IT_coordinate_system_code '2'
_symmetry_cell_setting 'tetragonal'
loop_
_space_group_symop_operation_xyz
x,y,z
1/2-y,x,1/2+z
1/2-x,1/2-y,z
y,1/2-x,1/2+z
x,1/2-y,-z
1/2-x,y,-z
y,x,1/2-z
1/2-y,1/2-x,1/2-z
-x,-y,-z
1/2+y,-x,1/2-z
1/2+x,1/2+y,-z
-y,1/2+x,1/2-z
-x,1/2+y,z
1/2+x,-y,z
-y,-x,1/2+z
1/2+y,1/2+x,1/2+z
loop_
_atom_site_type_symbol
_atom_site_label
_atom_site_fract_x
_atom_site_fract_y
_atom_site_fract_z
Si Si1 0.360821 0.412744 0.001036
Si Si2 0.281145 0.568108 0.171900
Si Si3 0.016520 0.270255 0.164053
Si Si4 0.232092 0.677850 0.812877
Si Si5 0.577419 0.750000 0.500000
Si Si6 0.053598 0.977979 0.496535
Si Si7 0.452236 0.372530 0.868929
Si Si8 0.516238 0.385235 0.341443
O O1 0.407635 0.376369 0.001360
O O2 0.364461 0.429823 0.811201
O O3 0.303877 0.397618 0.027659
O O4 0.374205 0.460578 0.106151
O O5 0.252380 0.535905 0.304191
O O6 0.286076 0.623995 0.224185
O O7 0.333715 0.543274 0.156533
O O8 0.250000 0.565827 0.000000
O O9 0.045490 0.258925 0.334006
O O10 0.013280 0.326322 0.116251
O O11 0.042135 0.250000 0.000000
O O12 0.192889 0.720361 0.790814
O O13 0.250000 0.678437 0.000000
O O14 0.085096 0.984082 0.330493
O O15 0.045194 0.921740 0.538032
O O16 0.081819 0.012267 0.625476
O O17 0.000000 0.000000 0.500000
#
# Coordination Sequence:
#
# PCOD9567738 Si02
#       8
#    16  16  16  16   8  16  16  16
#     4  10  20  38  63  85 121 167 211 260 326 375
#     4  11  23  42  65  89 120 166 212 282 336 395
#     4  11  21  38  62  90 124 164 213 264 322 377
#     4  10  22  39  62  85 115 152 206 270 341 399
#     4  10  20  40  62  84 127 161 204 270 306 378
#     4  12  25  39  57  88 130 171 215 262 312 409
#     4  10  22  37  60  92 122 166 218 263 319 395
#     4  12  24  39  60  85 124 172 215 259 333 385
#
# _framework density 19.631178999999999
#
# number of rings (size 3 to 8) (size 9 to 14) (size 15 to 20)
#    0.000    1.200    3.333    3.600    1.867    4.267 
#    0.000    0.000    0.000    0.000    0.000    0.467 
#    0.000    4.267    0.000    0.400    0.000    0.000 
#
# Total GULP energy -668895.727016 kJ/mol
# GULP energy per Si atom -5574.131058 kJ/mol
# Density = 1.958650 g / cm^3
# Si number density = 19.631179 Si / 1000 Ang^3
#
#
#
# Elastic Constant Matrix: (Units=GPa)
#
#
# Indices 1 2 3 4 5 6 
#
# 1 132.7479 48.2949 29.7602 0.0000 0.0000 0.0000
# 2 48.2949 132.7479 29.7602 0.0000 0.0000 0.0000
# 3 29.7602 29.7602 64.2198 0.0000 0.0000 0.0000
# 4 0.0000 0.0000 0.0000 15.1508 0.0000 0.0000
# 5 0.0000 0.0000 0.0000 0.0000 15.1508 0.0000
# 6 0.0000 0.0000 0.0000 0.0000 0.0000 -2.4134
#
#
#
# Elastic Compliance Matrix: (Units=1/GPa)
#
#
# Indices 1 2 3 4 5 6 
#
# 1 0.009179 -0.002662 -0.003020 0.000000 0.000000 0.000000
# 2 -0.002662 0.009179 -0.003020 0.000000 0.000000 0.000000
# 3 -0.003020 -0.003020 0.018370 0.000000 0.000000 0.000000
# 4 0.000000 0.000000 0.000000 0.066003 0.000000 0.000000
# 5 0.000000 0.000000 0.000000 0.000000 0.066003 0.000000
# 6 0.000000 0.000000 0.000000 0.000000 0.000000 -0.414353
#
#
# Mechanical properties :
#
#
# Convention : Reuss Voigt Hill
#
# Bulk Modulus (GPa) = 51.74916 60.59402 56.17159
# Shear Modulus (GPa) = -22.54547 20.37100 -1.08723
#
# Velocity S-wave (km/s) = -3.39256 3.22481 -0.74500
# Velocity P-wave (km/s) = 3.32746 6.69321 5.28541
#
# Compressibility (1/GPa) = 0.01932398
#
# Stress axis : x y z
#
# Youngs Moduli (GPa) = 108.94885 108.94885 54.43573
#
# Poissons Ratio (x) = 0.29005 0.16438
# Poissons Ratio (y) = 0.29005 0.16438
# Poissons Ratio (z) = 0.32900 0.32900
#
# Static dielectric constant tensor:
#      x y z
#    x -0.505860 0.000000 0.000000 
#    y 0.000000 -0.505860 0.000000 
#    z 0.000000 0.000000 1.725630 
# 
# From -- ./inp_files/2095.got.cif
#   From: 2010.05.17/outbox.cif.g08.bks.cpg/sg133_2_cif.got.tgz:2095.got - 2010.05.20 12:37:36.
