data_PCOD9567307
_publ_section_title
;
Structure prediction by ZEFSAII (Michael W. Deem and Ramdas Pophale) SiO2 
 PCOD9567307
Probable space group: P 42/M C M
;
_chemical_formula_sum "Si O2"
_cell_formula_units_Z 64
_cell_length_a 10.724679
_cell_length_b 10.724679
_cell_length_c 28.042522
_cell_angle_alpha 90.000000
_cell_angle_beta 90.000000
_cell_angle_gamma 90.000000
_cell_volume 3225.415537
_symmetry_space_group_name_H-M "P 42/M C M"
_symmetry_group_IT_number 132
_symmetry_cell_setting 'tetragonal'
loop_
_space_group_symop_operation_xyz
x,y,z
-y,x,1/2+z
-x,-y,z
y,-x,1/2+z
x,-y,1/2-z
-x,y,1/2-z
y,x,-z
-y,-x,-z
-x,-y,-z
y,-x,1/2-z
x,y,-z
-y,x,1/2-z
-x,y,1/2+z
x,-y,1/2+z
-y,-x,z
y,x,z
loop_
_atom_site_type_symbol
_atom_site_label
_atom_site_fract_x
_atom_site_fract_y
_atom_site_fract_z
Si Si1 0.245029 0.951028 0.641275
Si Si2 0.781726 0.423888 0.296544
Si Si3 0.819848 0.621907 0.055452
Si Si4 0.611140 0.195967 0.118012
O O1 0.105361 0.894640 0.648091
O O2 0.329392 0.884542 0.681908
O O3 0.290126 0.899743 0.589952
O O4 0.293004 0.092205 0.638127
O O5 0.820485 0.500000 0.250000
O O6 0.659061 0.340940 0.286999
O O7 0.761568 0.523480 0.338450
O O8 0.678590 0.678590 0.060796
O O9 0.842428 0.485176 0.076873
O O10 0.851877 0.629808 0.000000
O O11 0.691133 0.308868 0.098983
#
# Coordination Sequence:
#
# PCOD9567307 Si02
#       4
#    16  16  16  16
#     4   9  20  37  54  74 100 136 183 221 249 296
#     4  10  20  35  56  79 104 134 168 210 260 314
#     4   9  18  34  56  78 101 133 171 212 260 316
#     4  11  22  33  50  78 108 137 170 211 261 313
#
# _framework density 19.842404999999999
#
# number of rings (size 3 to 8) (size 9 to 14) (size 15 to 20)
#    0.000    2.250    0.000    6.000    0.000    8.250 
#    0.000    1.250    0.000    0.000    0.000    8.750 
#    0.000    0.000    0.000    0.000    0.000    0.000 
#
# Total GULP energy -356425.100686 kJ/mol
# GULP energy per Si atom -5569.142198 kJ/mol
# Density = 1.979724 g / cm^3
# Si number density = 19.842405 Si / 1000 Ang^3
#
#
#
# Elastic Constant Matrix: (Units=GPa)
#
#
# Indices 1 2 3 4 5 6 
#
# 1 11.9121 71.4892 10.0344 0.0000 0.0000 0.0000
# 2 71.4892 11.9121 10.0344 0.0000 0.0000 0.0000
# 3 10.0344 10.0344 115.9959 0.0000 0.0000 0.0000
# 4 0.0000 0.0000 0.0000 -11.2698 0.0000 0.0000
# 5 0.0000 0.0000 0.0000 0.0000 -11.2698 0.0000
# 6 0.0000 0.0000 0.0000 0.0000 0.0000 15.3125
#
#
#
# Elastic Compliance Matrix: (Units=1/GPa)
#
#
# Indices 1 2 3 4 5 6 
#
# 1 -0.002270 0.014515 -0.001059 0.000000 0.000000 0.000000
# 2 0.014515 -0.002270 -0.001059 0.000000 0.000000 0.000000
# 3 -0.001059 -0.001059 0.008804 0.000000 0.000000 0.000000
# 4 0.000000 0.000000 0.000000 -0.088733 0.000000 0.000000
# 5 0.000000 0.000000 0.000000 0.000000 -0.088733 0.000000
# 6 0.000000 0.000000 0.000000 0.000000 0.000000 0.065306
#
#
# Mechanical properties :
#
#
# Convention : Reuss Voigt Hill
#
# Bulk Modulus (GPa) = 34.41472 35.88182 35.14827
# Shear Modulus (GPa) = -40.64963 1.77206 -19.43878
#
# Velocity S-wave (km/s) = -4.53108 0.94605 -3.13335
# Velocity P-wave (km/s) = 3.16111 4.39500 2.15910
#
# Compressibility (1/GPa) = 0.02905733
#
# Stress axis : x y z
#
# Youngs Moduli (GPa) = -440.54140 -440.54140 113.58134
#
# Poissons Ratio (x) = 6.39447 0.12031
# Poissons Ratio (y) = 6.39447 0.12031
# Poissons Ratio (z) = -0.46666 -0.46666
#
# Static dielectric constant tensor:
#      x y z
#    x 1.791970 0.000000 0.000000 
#    y 0.000000 1.791970 0.000000 
#    z 0.000000 0.000000 1.667370 
# 
# From -- ./inp_files/9629.got.cif
#   From: 2010.05.17/outbox.cif.g08.bks.cpg/sg132_5_cif.got.tgz:9629.got - 2010.05.20 12:30:18.
