data_PCOD9567993
_publ_section_title
;
Structure prediction by ZEFSAII (Michael W. Deem and Ramdas Pophale) SiO2 
 PCOD9567993
Probable space group: P 42/N B C
;
_chemical_formula_sum "Si O2"
_cell_formula_units_Z 116
_cell_length_a 17.058553
_cell_length_b 17.058553
_cell_length_c 18.985280
_cell_angle_alpha 90.000000
_cell_angle_beta 90.000000
_cell_angle_gamma 90.000000
_cell_volume 5524.606944
_symmetry_space_group_name_H-M "P 42/N B C"
_symmetry_group_IT_number 133
_space_group.IT_coordinate_system_code '2'
_symmetry_cell_setting 'tetragonal'
loop_
_space_group_symop_operation_xyz
x,y,z
1/2-y,x,1/2+z
1/2-x,1/2-y,z
y,1/2-x,1/2+z
x,1/2-y,-z
1/2-x,y,-z
y,x,1/2-z
1/2-y,1/2-x,1/2-z
-x,-y,-z
1/2+y,-x,1/2-z
1/2+x,1/2+y,-z
-y,1/2+x,1/2-z
-x,1/2+y,z
1/2+x,-y,z
-y,-x,1/2+z
1/2+y,1/2+x,1/2+z
loop_
_atom_site_type_symbol
_atom_site_label
_atom_site_fract_x
_atom_site_fract_y
_atom_site_fract_z
Si Si1 0.329652 0.828785 0.129941
Si Si2 0.960081 0.670380 0.959906
Si Si3 0.951106 0.059824 0.069809
Si Si4 0.521441 0.238481 0.679984
Si Si5 0.058680 0.321644 0.445624
Si Si6 0.799001 0.438362 0.678069
Si Si7 0.250000 0.750000 0.500000
Si Si8 0.519001 0.439737 0.316817
O O1 0.409020 0.878561 0.121497
O O2 0.266337 0.888937 0.162205
O O3 0.357091 0.749163 0.168566
O O4 0.301090 0.802995 0.052453
O O5 0.877664 0.632965 0.938008
O O6 0.018150 0.692439 0.896359
O O7 0.944448 0.750000 0.000000
O O8 0.000781 0.608753 0.013004
O O9 0.880350 0.012308 0.033166
O O10 0.003231 0.001900 0.117910
O O11 0.467128 0.290532 0.630463
O O12 0.512689 0.253796 0.762652
O O13 0.501478 0.149324 0.662822
O O14 0.066820 0.250000 0.500000
O O15 0.889015 0.434125 0.702784
O O16 0.471031 0.471031 0.250000
#
# Coordination Sequence:
#
# PCOD9567993 Si02
#       8
#    16  16  16  16  16  16   4  16
#     4  11  24  43  66 107 145 185 233 289 365 433
#     4  12  25  43  73 102 142 189 242 304 357 431
#     4  11  23  43  66 106 138 183 245 284 357 435
#     4  11  26  44  70 105 146 185 236 301 361 434
#     4  11  25  44  70 105 143 186 237 301 358 424
#     4  12  24  44  70 105 141 189 236 291 361 438
#     4  12  24  40  70 100 156 192 230 284 376 440
#     4  12  25  44  75 101 142 190 240 302 356 436
#
# _framework density 20.996967999999999
#
# number of rings (size 3 to 8) (size 9 to 14) (size 15 to 20)
#    0.000    0.552    2.759    6.207    5.793    0.276 
#    0.000    1.379    0.000    0.000    0.000    0.000 
#    0.000    0.000    0.000    0.000    0.000    0.000 
#
# Total GULP energy -648613.492120 kJ/mol
# GULP energy per Si atom -5591.495622 kJ/mol
# Density = 2.094918 g / cm^3
# Si number density = 20.996968 Si / 1000 Ang^3
#
#
#
# Elastic Constant Matrix: (Units=GPa)
#
#
# Indices 1 2 3 4 5 6 
#
# 1 91.4995 32.0083 22.1871 0.0000 0.0000 0.0000
# 2 32.0083 91.4995 22.1871 0.0000 0.0000 0.0000
# 3 22.1871 22.1871 85.3957 0.0000 0.0000 0.0000
# 4 0.0000 0.0000 0.0000 30.5930 0.0000 0.0000
# 5 0.0000 0.0000 0.0000 0.0000 30.5930 0.0000
# 6 0.0000 0.0000 0.0000 0.0000 0.0000 671.0058
#
#
#
# Elastic Compliance Matrix: (Units=1/GPa)
#
#
# Indices 1 2 3 4 5 6 
#
# 1 0.012870 -0.003939 -0.002320 0.000000 0.000000 0.000000
# 2 -0.003939 0.012870 -0.002320 0.000000 0.000000 0.000000
# 3 -0.002320 -0.002320 0.012916 0.000000 0.000000 0.000000
# 4 0.000000 0.000000 0.000000 0.032687 0.000000 0.000000
# 5 0.000000 0.000000 0.000000 0.000000 0.032687 0.000000
# 6 0.000000 0.000000 0.000000 0.000000 0.000000 0.001490
#
#
# Mechanical properties :
#
#
# Convention : Reuss Voigt Hill
#
# Bulk Modulus (GPa) = 46.52134 46.79552 46.65843
# Shear Modulus (GPa) = 38.50742 159.23916 98.87329
#
# Velocity S-wave (km/s) = 4.28711 8.71801 6.86961
# Velocity P-wave (km/s) = 6.83448 11.12086 9.22994
#
# Compressibility (1/GPa) = 0.02149551
#
# Stress axis : x y z
#
# Youngs Moduli (GPa) = 77.70163 77.70163 77.42422
#
# Poissons Ratio (x) = 0.30610 0.17964
# Poissons Ratio (y) = 0.30610 0.17964
# Poissons Ratio (z) = 0.18028 0.18028
#
# Static dielectric constant tensor:
#      x y z
#    x 1.773000 0.000000 0.000000 
#    y 0.000000 1.773000 0.000000 
#    z 0.000000 0.000000 1.767430 
# 
# From -- ./inp_files/5659.got.cif
#   From: 2010.05.17/outbox.cif.g08.bks.cpg/sg133_3_cif.got.tgz:5659.got - 2010.05.20 12:37:36.
