data_PCOD9567831
_publ_section_title
;
Structure prediction by ZEFSAII (Michael W. Deem and Ramdas Pophale) SiO2 
 PCOD9567831
Probable space group: P 42/N B C
;
_chemical_formula_sum "Si O2"
_cell_formula_units_Z 56
_cell_length_a 22.353034
_cell_length_b 22.353034
_cell_length_c 5.112167
_cell_angle_alpha 90.000000
_cell_angle_beta 90.000000
_cell_angle_gamma 90.000000
_cell_volume 2554.335798
_symmetry_space_group_name_H-M "P 42/N B C"
_symmetry_group_IT_number 133
_space_group.IT_coordinate_system_code '2'
_symmetry_cell_setting 'tetragonal'
loop_
_space_group_symop_operation_xyz
x,y,z
1/2-y,x,1/2+z
1/2-x,1/2-y,z
y,1/2-x,1/2+z
x,1/2-y,-z
1/2-x,y,-z
y,x,1/2-z
1/2-y,1/2-x,1/2-z
-x,-y,-z
1/2+y,-x,1/2-z
1/2+x,1/2+y,-z
-y,1/2+x,1/2-z
-x,1/2+y,z
1/2+x,-y,z
-y,-x,1/2+z
1/2+y,1/2+x,1/2+z
loop_
_atom_site_type_symbol
_atom_site_label
_atom_site_fract_x
_atom_site_fract_y
_atom_site_fract_z
Si Si1 0.365079 0.365079 0.750000
Si Si2 0.970010 0.845735 0.615499
Si Si3 0.450484 0.750000 0.500000
Si Si4 0.750000 0.589048 0.500000
Si Si5 0.408949 0.854072 0.183451
O O1 0.414550 0.376614 0.524571
O O2 0.296540 0.373297 0.670384
O O3 0.946432 0.795731 0.815507
O O4 0.007083 0.804908 0.404828
O O5 0.023766 0.879617 0.761638
O O6 0.414185 0.784880 0.277288
O O7 0.366253 0.886036 0.395044
#
# Coordination Sequence:
#
# PCOD9567831 Si02
#       5
#     8  16   8   8  16
#     4  12  22  42  63  94 122 174 214 278 328 395
#     4  10  23  40  67  90 127 176 218 272 327 399
#     4   8  20  40  64  94 122 180 210 268 316 392
#     4  12  22  42  65  90 126 173 224 266 338 386
#     4  10  22  38  66 101 128 172 224 266 322 396
#
# _framework density 21.923508999999999
#
# number of rings (size 3 to 8) (size 9 to 14) (size 15 to 20)
#    1.714    0.000    2.857    0.857    8.000    1.143 
#    0.000   11.429    0.000    2.571    0.000    0.000 
#    0.000    0.000    0.000    0.000    0.000    0.000 
#
# Total GULP energy -311750.469429 kJ/mol
# GULP energy per Si atom -5566.972668 kJ/mol
# Density = 2.187361 g / cm^3
# Si number density = 21.923509 Si / 1000 Ang^3
#
#
#
# Elastic Constant Matrix: (Units=GPa)
#
#
# Indices 1 2 3 4 5 6 
#
# 1 60.1244 30.2867 24.8101 0.0000 0.0000 0.0000
# 2 30.2867 60.1244 24.8101 0.0000 0.0000 0.0000
# 3 24.8101 24.8101 82.3985 0.0000 0.0000 0.0000
# 4 0.0000 0.0000 0.0000 22.3932 0.0000 0.0000
# 5 0.0000 0.0000 0.0000 0.0000 22.3932 0.0000
# 6 0.0000 0.0000 0.0000 0.0000 0.0000 96.9073
#
#
#
# Elastic Compliance Matrix: (Units=1/GPa)
#
#
# Indices 1 2 3 4 5 6 
#
# 1 0.023382 -0.010132 -0.003990 0.000000 0.000000 0.000000
# 2 -0.010132 0.023382 -0.003990 0.000000 0.000000 0.000000
# 3 -0.003990 -0.003990 0.014539 0.000000 0.000000 0.000000
# 4 0.000000 0.000000 0.000000 0.044656 0.000000 0.000000
# 5 0.000000 0.000000 0.000000 0.000000 0.044656 0.000000
# 6 0.000000 0.000000 0.000000 0.000000 0.000000 0.010319
#
#
# Mechanical properties :
#
#
# Convention : Reuss Voigt Hill
#
# Bulk Modulus (GPa) = 39.87144 40.27345 40.07245
# Shear Modulus (GPa) = 24.32872 36.52144 30.42508
#
# Velocity S-wave (km/s) = 3.33484 4.08592 3.72934
# Velocity P-wave (km/s) = 5.74929 6.37727 6.07140
#
# Compressibility (1/GPa) = 0.02508061
#
# Stress axis : x y z
#
# Youngs Moduli (GPa) = 42.76723 42.76723 68.78198
#
# Poissons Ratio (x) = 0.43333 0.27441
# Poissons Ratio (y) = 0.43333 0.27441
# Poissons Ratio (z) = 0.17063 0.17063
#
# Static dielectric constant tensor:
#      x y z
#    x 1.853470 0.000000 0.000000 
#    y 0.000000 1.853470 0.000000 
#    z 0.000000 0.000000 1.941640 
# 
# From -- ./inp_files/337.got.cif
#   From: 2010.05.17/outbox.cif.g08.bks.cpg/sg133_1_cif.got.tgz:337.got - 2010.05.20 12:37:36.
