data_PCOD9567297
_publ_section_title
;
Structure prediction by ZEFSAII (Michael W. Deem and Ramdas Pophale) SiO2 
 PCOD9567297
Probable space group: P 42/M C M
;
_chemical_formula_sum "Si O2"
_cell_formula_units_Z 96
_cell_length_a 18.794810
_cell_length_b 18.794810
_cell_length_c 18.038738
_cell_angle_alpha 90.000000
_cell_angle_beta 90.000000
_cell_angle_gamma 90.000000
_cell_volume 6372.091893
_symmetry_space_group_name_H-M "P 42/M C M"
_symmetry_group_IT_number 132
_symmetry_cell_setting 'tetragonal'
loop_
_space_group_symop_operation_xyz
x,y,z
-y,x,1/2+z
-x,-y,z
y,-x,1/2+z
x,-y,1/2-z
-x,y,1/2-z
y,x,-z
-y,-x,-z
-x,-y,-z
y,-x,1/2-z
x,y,-z
-y,x,1/2-z
-x,y,1/2+z
x,-y,1/2+z
-y,-x,z
y,x,z
loop_
_atom_site_type_symbol
_atom_site_label
_atom_site_fract_x
_atom_site_fract_y
_atom_site_fract_z
Si Si1 0.028530 0.577705 0.667916
Si Si2 0.721174 0.840454 0.299102
Si Si3 0.655825 0.774924 0.080580
Si Si4 0.713432 0.969190 0.412459
Si Si5 0.423133 0.810207 0.717972
Si Si6 0.113114 0.229272 0.862219
O O1 0.112208 0.571402 0.679873
O O2 0.000000 0.500000 0.648466
O O3 0.000000 0.597468 0.750000
O O4 0.001984 0.637115 0.611751
O O5 0.772825 0.772825 0.311301
O O6 0.723026 0.897096 0.365427
O O7 0.640650 0.816215 0.278189
O O8 0.750164 0.879367 0.224467
O O9 0.708414 0.708414 0.078097
O O10 0.604002 0.763662 0.149500
O O11 0.708346 0.841793 0.096925
O O12 0.621568 0.784927 0.000000
O O13 0.717175 0.957160 0.500000
O O14 0.767791 0.032053 0.388435
O O15 0.500000 0.791467 0.750000
O O16 0.156264 0.156264 0.875121
#
# Coordination Sequence:
#
# PCOD9567297 Si02
#       6
#    16  16  16  16  16  16
#     4  11  18  31  46  63  95 132 164 199 228 276
#     4  10  20  35  51  66  91 131 168 198 240 297
#     4   9  17  29  46  71 101 126 154 202 255 293
#     4  12  21  30  47  69  96 126 162 205 245 291
#     4  11  18  29  51  71  97 130 165 199 236 286
#     4   9  17  30  51  72  89 117 161 208 249 291
#
# _framework density 15.065695
#
# number of rings (size 3 to 8) (size 9 to 14) (size 15 to 20)
#    0.000    1.667    6.667    2.500    0.000    1.667 
#    0.000    2.500    0.000    0.500    0.000    3.500 
#    0.000    5.333    0.000    7.333    0.000    0.000 
#
# Total GULP energy -534998.822098 kJ/mol
# GULP energy per Si atom -5572.904397 kJ/mol
# Density = 1.503141 g / cm^3
# Si number density = 15.065695 Si / 1000 Ang^3
#
#
#
# Elastic Constant Matrix: (Units=GPa)
#
#
# Indices 1 2 3 4 5 6 
#
# 1 73.7728 42.9158 45.6876 0.0000 0.0000 0.0000
# 2 42.9158 73.7728 45.6876 0.0000 0.0000 0.0000
# 3 45.6876 45.6876 109.6995 0.0000 0.0000 0.0000
# 4 0.0000 0.0000 0.0000 14.4016 0.0000 0.0000
# 5 0.0000 0.0000 0.0000 0.0000 14.4016 0.0000
# 6 0.0000 0.0000 0.0000 0.0000 0.0000 17.1383
#
#
#
# Elastic Compliance Matrix: (Units=1/GPa)
#
#
# Indices 1 2 3 4 5 6 
#
# 1 0.022562 -0.009845 -0.005297 0.000000 0.000000 0.000000
# 2 -0.009845 0.022562 -0.005297 0.000000 0.000000 0.000000
# 3 -0.005297 -0.005297 0.013528 0.000000 0.000000 0.000000
# 4 0.000000 0.000000 0.000000 0.069437 0.000000 0.000000
# 5 0.000000 0.000000 0.000000 0.000000 0.069437 0.000000
# 6 0.000000 0.000000 0.000000 0.000000 0.000000 0.058349
#
#
# Mechanical properties :
#
#
# Convention : Reuss Voigt Hill
#
# Bulk Modulus (GPa) = 56.25489 58.42522 57.34006
# Shear Modulus (GPa) = 16.51928 17.38523 16.95225
#
# Velocity S-wave (km/s) = 3.31491 3.40069 3.35807
# Velocity P-wave (km/s) = 7.21611 7.36777 7.29234
#
# Compressibility (1/GPa) = 0.01777623
#
# Stress axis : x y z
#
# Youngs Moduli (GPa) = 44.32138 44.32138 73.92299
#
# Poissons Ratio (x) = 0.43635 0.39153
# Poissons Ratio (y) = 0.43635 0.39153
# Poissons Ratio (z) = 0.23475 0.23475
#
# Static dielectric constant tensor:
#      x y z
#    x 1.512100 0.000000 0.000000 
#    y 0.000000 1.512100 0.000000 
#    z 0.000000 0.000000 1.534140 
# 
# From -- ./inp_files/6449.got.cif
#   From: 2010.05.17/outbox.cif.g08.bks.cpg/sg132_4_cif.got.tgz:6449.got - 2010.05.20 12:30:18.
