data_PCOD9567808
_publ_section_title
;
Structure prediction by ZEFSAII (Michael W. Deem and Ramdas Pophale) SiO2 
 PCOD9567808
Probable space group: P 42/N B C
;
_chemical_formula_sum "Si O2"
_cell_formula_units_Z 108
_cell_length_a 13.324434
_cell_length_b 13.324434
_cell_length_c 26.736432
_cell_angle_alpha 90.000000
_cell_angle_beta 90.000000
_cell_angle_gamma 90.000000
_cell_volume 4746.800613
_symmetry_space_group_name_H-M "P 42/N B C"
_symmetry_group_IT_number 133
_space_group.IT_coordinate_system_code '2'
_symmetry_cell_setting 'tetragonal'
loop_
_space_group_symop_operation_xyz
x,y,z
1/2-y,x,1/2+z
1/2-x,1/2-y,z
y,1/2-x,1/2+z
x,1/2-y,-z
1/2-x,y,-z
y,x,1/2-z
1/2-y,1/2-x,1/2-z
-x,-y,-z
1/2+y,-x,1/2-z
1/2+x,1/2+y,-z
-y,1/2+x,1/2-z
-x,1/2+y,z
1/2+x,-y,z
-y,-x,1/2+z
1/2+y,1/2+x,1/2+z
loop_
_atom_site_type_symbol
_atom_site_label
_atom_site_fract_x
_atom_site_fract_y
_atom_site_fract_z
Si Si1 0.250000 0.750000 0.750000
Si Si2 0.677014 0.450736 0.646475
Si Si3 0.078100 0.750855 0.690285
Si Si4 0.139288 0.062739 0.122497
Si Si5 0.947228 0.817852 0.221314
Si Si6 0.250000 0.250000 0.163955
Si Si7 0.845262 0.433935 0.472523
Si Si8 0.135283 0.059036 0.006529
O O1 0.168055 0.806032 0.717996
O O2 0.628416 0.352250 0.671253
O O3 0.595795 0.540309 0.652242
O O4 0.779897 0.486586 0.673425
O O5 0.683789 0.441872 0.586161
O O6 0.033867 0.809414 0.644737
O O7 0.992003 0.742848 0.731908
O O8 0.212947 0.157899 0.129795
O O9 0.119015 0.040576 0.065253
O O10 0.924940 0.924940 0.250000
O O11 0.839599 0.786780 0.199174
O O12 0.750000 0.385383 0.500000
O O13 0.866035 0.541082 0.501666
O O14 0.953495 0.379091 0.477546
O O15 0.250000 0.095678 0.000000
#
# Coordination Sequence:
#
# PCOD9567808 Si02
#       8
#     4  16  16  16  16   8  16  16
#     4  12  28  44  56  92 138 180 232 276 324 416
#     4  10  24  44  65 100 132 171 233 274 337 418
#     4  12  24  44  63  92 140 183 221 284 342 406
#     4  10  23  41  67 100 132 179 225 285 339 420
#     4  11  22  40  67  95 131 179 216 281 341 404
#     4  10  21  40  65 102 138 160 239 282 342 409
#     4  10  23  45  69  99 135 179 227 289 343 416
#     4  10  22  42  67 100 137 173 228 283 346 413
#
# _framework density 22.752165999999999
#
# number of rings (size 3 to 8) (size 9 to 14) (size 15 to 20)
#    0.000    1.481    2.963    1.111    2.074    6.519 
#    8.000    0.000    0.000    0.000    0.000    0.000 
#    0.000    0.000    0.000    0.000    0.000    0.000 
#
# Total GULP energy -601968.610381 kJ/mol
# GULP energy per Si atom -5573.783429 kJ/mol
# Density = 2.270038 g / cm^3
# Si number density = 22.752166 Si / 1000 Ang^3
#
#
#
# Elastic Constant Matrix: (Units=GPa)
#
#
# Indices 1 2 3 4 5 6 
#
# 1 88.4989 12.3370 27.6711 0.0000 0.0000 0.0000
# 2 12.3370 88.4989 27.6711 0.0000 0.0000 0.0000
# 3 27.6711 27.6711 101.0184 0.0000 0.0000 0.0000
# 4 0.0000 0.0000 0.0000 23.2244 0.0000 0.0000
# 5 0.0000 0.0000 0.0000 0.0000 23.2244 0.0000
# 6 0.0000 0.0000 0.0000 0.0000 0.0000 30.3113
#
#
#
# Elastic Compliance Matrix: (Units=1/GPa)
#
#
# Indices 1 2 3 4 5 6 
#
# 1 0.012401 -0.000729 -0.003197 0.000000 0.000000 0.000000
# 2 -0.000729 0.012401 -0.003197 0.000000 0.000000 0.000000
# 3 -0.003197 -0.003197 0.011651 0.000000 0.000000 0.000000
# 4 0.000000 0.000000 0.000000 0.043058 0.000000 0.000000
# 5 0.000000 0.000000 0.000000 0.000000 0.043058 0.000000
# 6 0.000000 0.000000 0.000000 0.000000 0.000000 0.032991
#
#
# Mechanical properties :
#
#
# Convention : Reuss Voigt Hill
#
# Bulk Modulus (GPa) = 45.03346 45.93053 45.48200
# Shear Modulus (GPa) = 28.21538 29.37450 28.79494
#
# Velocity S-wave (km/s) = 3.52535 3.59704 3.56137
# Velocity P-wave (km/s) = 6.03381 6.12231 6.07822
#
# Compressibility (1/GPa) = 0.02220571
#
# Stress axis : x y z
#
# Youngs Moduli (GPa) = 80.63948 80.63948 85.83149
#
# Poissons Ratio (x) = 0.05879 0.27442
# Poissons Ratio (y) = 0.05879 0.27442
# Poissons Ratio (z) = 0.25782 0.25782
#
# Static dielectric constant tensor:
#      x y z
#    x 1.905310 0.000000 0.000000 
#    y 0.000000 1.905310 0.000000 
#    z 0.000000 0.000000 1.832020 
# 
# From -- ./inp_files/7283.got.cif
#   From: 2010.05.17/outbox.cif.g08.bks.cpg/sg133_4_cif.got.tgz:7283.got - 2010.05.20 12:37:36.
