data_PCOD9567707
_publ_section_title
;
Structure prediction by ZEFSAII (Michael W. Deem and Ramdas Pophale) SiO2 
 PCOD9567707
Probable space group: P 42/N B C
;
_chemical_formula_sum "Si O2"
_cell_formula_units_Z 88
_cell_length_a 18.277288
_cell_length_b 18.277288
_cell_length_c 14.922316
_cell_angle_alpha 90.000000
_cell_angle_beta 90.000000
_cell_angle_gamma 90.000000
_cell_volume 4984.937790
_symmetry_space_group_name_H-M "P 42/N B C"
_symmetry_group_IT_number 133
_space_group.IT_coordinate_system_code '2'
_symmetry_cell_setting 'tetragonal'
loop_
_space_group_symop_operation_xyz
x,y,z
1/2-y,x,1/2+z
1/2-x,1/2-y,z
y,1/2-x,1/2+z
x,1/2-y,-z
1/2-x,y,-z
y,x,1/2-z
1/2-y,1/2-x,1/2-z
-x,-y,-z
1/2+y,-x,1/2-z
1/2+x,1/2+y,-z
-y,1/2+x,1/2-z
-x,1/2+y,z
1/2+x,-y,z
-y,-x,1/2+z
1/2+y,1/2+x,1/2+z
loop_
_atom_site_type_symbol
_atom_site_label
_atom_site_fract_x
_atom_site_fract_y
_atom_site_fract_z
Si Si1 0.200513 0.560932 0.086603
Si Si2 0.163014 0.682992 0.217384
Si Si3 0.649488 0.850513 0.250000
Si Si4 0.474745 0.082699 0.517629
Si Si5 0.167032 0.510460 0.803389
Si Si6 0.827953 0.829405 0.956402
O O1 0.181786 0.638951 0.128710
O O2 0.251721 0.516919 0.155326
O O3 0.250000 0.571972 0.000000
O O4 0.130951 0.514727 0.057783
O O5 0.163861 0.770929 0.213665
O O6 0.085327 0.655454 0.251297
O O7 0.562381 0.838035 0.245705
O O8 0.674572 0.819911 0.347403
O O9 0.503509 0.110746 0.614288
O O10 0.389659 0.109444 0.520969
O O11 0.500000 0.000000 0.500000
O O12 0.843333 0.750000 0.000000
O O13 0.750000 0.854203 0.000000
#
# Coordination Sequence:
#
# PCOD9567707 Si02
#       6
#    16  16   8  16  16  16
#     4   9  18  35  56  77 111 152 188 232 289 341
#     4   9  18  34  55  80 113 146 190 232 270 339
#     4  10  20  37  66  82 118 156 188 239 314 344
#     4  10  20  36  56  83 115 149 188 240 295 347
#     4   9  19  35  55  80 110 154 187 229 293 346
#     4  10  22  41  64  87 120 156 200 246 295 358
#
# _framework density 17.653179999999999
#
# number of rings (size 3 to 8) (size 9 to 14) (size 15 to 20)
#    0.000    2.545    0.000    2.727    5.091    1.455 
#    6.545   15.455    0.000    0.000    0.000    0.000 
#    0.000    0.000    0.000    0.000    0.000    0.000 
#
# Total GULP energy -490037.767998 kJ/mol
# GULP energy per Si atom -5568.611000 kJ/mol
# Density = 1.761300 g / cm^3
# Si number density = 17.653180 Si / 1000 Ang^3
#
#
#
# Elastic Constant Matrix: (Units=GPa)
#
#
# Indices 1 2 3 4 5 6 
#
# 1 110.3104 42.9183 35.9798 0.0000 0.0000 0.0000
# 2 42.9183 110.3112 35.9801 0.0000 0.0000 0.0000
# 3 35.9798 35.9801 62.8737 0.0000 0.0000 0.0000
# 4 0.0000 0.0000 0.0000 15.3354 0.0000 0.0000
# 5 0.0000 0.0000 0.0000 0.0000 15.3352 0.0000
# 6 0.0000 0.0000 0.0000 0.0000 0.0000 21.6173
#
#
#
# Elastic Compliance Matrix: (Units=1/GPa)
#
#
# Indices 1 2 3 4 5 6 
#
# 1 0.011882 -0.002957 -0.005107 0.000000 0.000000 0.000000
# 2 -0.002957 0.011882 -0.005107 0.000000 0.000000 0.000000
# 3 -0.005107 -0.005107 0.021750 0.000000 0.000000 0.000000
# 4 0.000000 0.000000 0.000000 0.065209 0.000000 0.000000
# 5 0.000000 0.000000 0.000000 0.000000 0.065209 0.000000
# 6 0.000000 0.000000 0.000000 0.000000 0.000000 0.046259
#
#
# Mechanical properties :
#
#
# Convention : Reuss Voigt Hill
#
# Bulk Modulus (GPa) = 52.16303 57.02798 54.59551
# Shear Modulus (GPa) = 19.61375 21.69873 20.65624
#
# Velocity S-wave (km/s) = 3.33687 3.50975 3.42440
# Velocity P-wave (km/s) = 6.66778 6.98565 6.82856
#
# Compressibility (1/GPa) = 0.01917067
#
# Stress axis : x y z
#
# Youngs Moduli (GPa) = 84.16399 84.16446 45.97671
#
# Poissons Ratio (x) = 0.24887 0.23481
# Poissons Ratio (y) = 0.24887 0.23481
# Poissons Ratio (z) = 0.42984 0.42984
#
# Static dielectric constant tensor:
#      x y z
#    x 1.615430 0.000000 0.000000 
#    y 0.000000 1.615430 0.000000 
#    z 0.000000 0.000000 1.608740 
# 
# From -- ./inp_files/4460.got.cif
#   From: 2010.05.17/outbox.cif.g08.bks.cpg/sg133_3_cif.got.tgz:4460.got - 2010.05.20 12:37:36.
