data_PCOD9567204
_publ_section_title
;
Structure prediction by ZEFSAII (Michael W. Deem and Ramdas Pophale) SiO2 
 PCOD9567204
Probable space group: P 42/M C M
;
_chemical_formula_sum "Si O2"
_cell_formula_units_Z 96
_cell_length_a 21.880270
_cell_length_b 21.880270
_cell_length_c 15.351438
_cell_angle_alpha 90.000000
_cell_angle_beta 90.000000
_cell_angle_gamma 90.000000
_cell_volume 7349.442841
_symmetry_space_group_name_H-M "P 42/M C M"
_symmetry_group_IT_number 132
_symmetry_cell_setting 'tetragonal'
loop_
_space_group_symop_operation_xyz
x,y,z
-y,x,1/2+z
-x,-y,z
y,-x,1/2+z
x,-y,1/2-z
-x,y,1/2-z
y,x,-z
-y,-x,-z
-x,-y,-z
y,-x,1/2-z
x,y,-z
-y,x,1/2-z
-x,y,1/2+z
x,-y,1/2+z
-y,-x,z
y,x,z
loop_
_atom_site_type_symbol
_atom_site_label
_atom_site_fract_x
_atom_site_fract_y
_atom_site_fract_z
Si Si1 0.885114 0.019454 0.846925
Si Si2 0.344614 0.920340 0.099897
Si Si3 0.902176 0.807699 0.896889
Si Si4 0.329620 0.932893 0.397611
Si Si5 0.570067 0.925767 0.754528
Si Si6 0.115712 0.788437 0.102757
O O1 0.943098 0.056903 0.886274
O O2 0.830227 0.068603 0.844750
O O3 0.902142 0.000000 0.750000
O O4 0.853744 0.959977 0.888459
O O5 0.396560 0.904299 0.167379
O O6 0.281667 0.888224 0.125315
O O7 0.331587 0.993146 0.104932
O O8 0.359978 0.906099 0.000000
O O9 0.843827 0.843827 0.858824
O O10 0.914279 0.738526 0.864690
O O11 0.892583 0.799979 0.000000
O O12 0.336977 0.915569 0.500000
O O13 0.385669 0.910885 0.336621
O O14 0.500000 0.904684 0.750000
O O15 0.568504 0.000000 0.750000
O O16 0.181646 0.818355 0.111616
O O17 0.097246 0.794156 0.000000
#
# Coordination Sequence:
#
# PCOD9567204 Si02
#       6
#    16  16  16  16  16  16
#     4  11  22  31  39  53  72  94 125 165 204 239
#     4   9  16  27  43  60  77  96 120 151 189 232
#     4  10  20  32  44  56  71  97 131 161 195 237
#     4   9  17  29  43  58  77  99 123 153 189 230
#     4   9  18  29  42  60  77  95 117 144 186 237
#     4   9  17  29  44  58  71  93 125 157 193 236
#
# _framework density 13.062214000000001
#
# number of rings (size 3 to 8) (size 9 to 14) (size 15 to 20)
#    0.000    2.500    1.667    1.000    2.333    2.833 
#    0.000    4.167    0.000    0.000    0.000    0.000 
#    0.000    0.000    0.000    0.000    0.000    0.000 
#
# Total GULP energy -534544.044769 kJ/mol
# GULP energy per Si atom -5568.167133 kJ/mol
# Density = 1.303248 g / cm^3
# Si number density = 13.062214 Si / 1000 Ang^3
#
#
#
# Elastic Constant Matrix: (Units=GPa)
#
#
# Indices 1 2 3 4 5 6 
#
# 1 75.1091 38.5984 34.9996 0.0000 0.0000 0.0000
# 2 38.5984 75.1091 34.9996 0.0000 0.0000 0.0000
# 3 34.9996 34.9996 45.9131 0.0000 0.0000 0.0000
# 4 0.0000 0.0000 0.0000 12.3135 0.0000 0.0000
# 5 0.0000 0.0000 0.0000 0.0000 12.3135 0.0000
# 6 0.0000 0.0000 0.0000 0.0000 0.0000 7.4716
#
#
#
# Elastic Compliance Matrix: (Units=1/GPa)
#
#
# Indices 1 2 3 4 5 6 
#
# 1 0.021980 -0.005409 -0.012632 0.000000 0.000000 0.000000
# 2 -0.005409 0.021980 -0.012632 0.000000 0.000000 0.000000
# 3 -0.012632 -0.012632 0.041039 0.000000 0.000000 0.000000
# 4 0.000000 0.000000 0.000000 0.081212 0.000000 0.000000
# 5 0.000000 0.000000 0.000000 0.000000 0.081212 0.000000
# 6 0.000000 0.000000 0.000000 0.000000 0.000000 0.133840
#
#
# Mechanical properties :
#
#
# Convention : Reuss Voigt Hill
#
# Bulk Modulus (GPa) = 42.27827 45.92515 44.10171
# Shear Modulus (GPa) = 11.09898 12.25533 11.67716
#
# Velocity S-wave (km/s) = 2.91813 3.06637 2.99317
# Velocity P-wave (km/s) = 6.61748 6.91173 6.76620
#
# Compressibility (1/GPa) = 0.02365281
#
# Stress axis : x y z
#
# Youngs Moduli (GPa) = 45.49597 45.49597 24.36717
#
# Poissons Ratio (x) = 0.24610 0.30780
# Poissons Ratio (y) = 0.24610 0.30780
# Poissons Ratio (z) = 0.57470 0.57470
#
# Static dielectric constant tensor:
#      x y z
#    x 1.421270 0.000000 0.000000 
#    y 0.000000 1.421270 0.000000 
#    z 0.000000 0.000000 1.477550 
# 
# From -- ./inp_files/5002.got.cif
#   From: 2010.05.17/outbox.cif.g08.bks.cpg/sg132_3_cif.got.tgz:5002.got - 2010.05.20 12:30:18.
