data_PCOD9567005
_publ_section_title
;
Structure prediction by ZEFSAII (Michael W. Deem and Ramdas Pophale) SiO2 
 PCOD9567005
Probable space group: P 42/M C M
;
_chemical_formula_sum "Si O2"
_cell_formula_units_Z 104
_cell_length_a 17.970714
_cell_length_b 17.970714
_cell_length_c 19.366405
_cell_angle_alpha 90.000000
_cell_angle_beta 90.000000
_cell_angle_gamma 90.000000
_cell_volume 6254.313907
_symmetry_space_group_name_H-M "P 42/M C M"
_symmetry_group_IT_number 132
_symmetry_cell_setting 'tetragonal'
loop_
_space_group_symop_operation_xyz
x,y,z
-y,x,1/2+z
-x,-y,z
y,-x,1/2+z
x,-y,1/2-z
-x,y,1/2-z
y,x,-z
-y,-x,-z
-x,-y,-z
y,-x,1/2-z
x,y,-z
-y,x,1/2-z
-x,y,1/2+z
x,-y,1/2+z
-y,-x,z
y,x,z
loop_
_atom_site_type_symbol
_atom_site_label
_atom_site_fract_x
_atom_site_fract_y
_atom_site_fract_z
Si Si1 0.564088 0.310844 0.082219
Si Si2 0.114659 0.761510 0.205671
Si Si3 0.590060 0.283619 0.342945
Si Si4 0.939294 0.939294 0.082652
Si Si5 0.222953 0.041282 0.854857
Si Si6 0.299521 0.176825 0.918103
Si Si7 0.360020 0.234014 0.298312
O O1 0.613899 0.386102 0.091841
O O2 0.483726 0.311545 0.118616
O O3 0.605945 0.246883 0.126167
O O4 0.558872 0.297711 0.000000
O O5 0.174742 0.825259 0.185902
O O6 0.080515 0.782549 0.279973
O O7 0.156793 0.682732 0.211116
O O8 0.044383 0.755408 0.155351
O O9 0.648537 0.351464 0.344279
O O10 0.629696 0.215409 0.383053
O O11 0.584431 0.254954 0.263962
O O12 0.957503 0.857207 0.109458
O O13 0.939017 0.939017 0.000000
O O14 0.000000 0.000000 0.106725
O O15 0.280575 0.093359 0.895749
O O16 0.228033 0.228033 0.897339
O O17 0.307047 0.181581 0.000000
O O18 0.294948 0.294948 0.291133
#
# Coordination Sequence:
#
# PCOD9567005 Si02
#       7
#    16  16  16   8  16  16  16
#     4  10  21  36  54  80 114 149 177 208 266 334
#     4  10  19  33  52  76 103 132 182 238 276 322
#     4  10  19  33  56  85 111 139 181 225 267 321
#     4  11  22  34  46  70 116 158 181 217 285 352
#     4  11  19  31  50  75 103 138 183 226 275 323
#     4  10  18  30  50  76 108 144 181 225 276 327
#     4   9  18  35  56  77 105 139 183 230 269 315
#
# _framework density 16.628523000000001
#
# number of rings (size 3 to 8) (size 9 to 14) (size 15 to 20)
#    0.000    1.923    3.077    1.846    0.000    1.231 
#    0.000    2.308    0.000    7.385    0.000    2.154 
#    0.000    0.000    0.000    0.000    0.000    0.000 
#
# Total GULP energy -579505.088889 kJ/mol
# GULP energy per Si atom -5572.164316 kJ/mol
# Density = 1.659068 g / cm^3
# Si number density = 16.628523 Si / 1000 Ang^3
#
#
#
# Elastic Constant Matrix: (Units=GPa)
#
#
# Indices 1 2 3 4 5 6 
#
# 1 78.4477 58.9103 44.7347 0.0000 0.0000 0.0000
# 2 58.9103 78.4477 44.7347 0.0000 0.0000 0.0000
# 3 44.7347 44.7347 88.4246 0.0000 0.0000 0.0000
# 4 0.0000 0.0000 0.0000 25.0566 0.0000 0.0000
# 5 0.0000 0.0000 0.0000 0.0000 25.0566 0.0000
# 6 0.0000 0.0000 0.0000 0.0000 0.0000 17.9501
#
#
#
# Elastic Compliance Matrix: (Units=1/GPa)
#
#
# Indices 1 2 3 4 5 6 
#
# 1 0.031021 -0.020163 -0.005493 0.000000 0.000000 0.000000
# 2 -0.020163 0.031021 -0.005493 0.000000 0.000000 0.000000
# 3 -0.005493 -0.005493 0.016867 0.000000 0.000000 0.000000
# 4 0.000000 0.000000 0.000000 0.039910 0.000000 0.000000
# 5 0.000000 0.000000 0.000000 0.000000 0.039910 0.000000
# 6 0.000000 0.000000 0.000000 0.000000 0.000000 0.055710
#
#
# Mechanical properties :
#
#
# Convention : Reuss Voigt Hill
#
# Bulk Modulus (GPa) = 60.20209 60.23105 60.21657
# Shear Modulus (GPa) = 17.71325 20.07533 18.89429
#
# Velocity S-wave (km/s) = 3.26733 3.47837 3.37450
# Velocity P-wave (km/s) = 7.10751 7.24101 7.17457
#
# Compressibility (1/GPa) = 0.01661072
#
# Stress axis : x y z
#
# Youngs Moduli (GPa) = 32.23616 32.23616 59.28618
#
# Poissons Ratio (x) = 0.64997 0.32568
# Poissons Ratio (y) = 0.64997 0.32568
# Poissons Ratio (z) = 0.17708 0.17708
#
# Static dielectric constant tensor:
#      x y z
#    x 1.558440 0.000000 0.000000 
#    y 0.000000 1.558440 0.000000 
#    z 0.000000 0.000000 1.579260 
# 
# From -- ./inp_files/6567.got.cif
#   From: 2010.05.17/outbox.cif.g08.bks.cpg/sg132_4_cif.got.tgz:6567.got - 2010.05.20 12:30:18.
