data_PCOD9567412
_publ_section_title
;
Structure prediction by ZEFSAII (Michael W. Deem and Ramdas Pophale) SiO2 
 PCOD9567412
Probable space group: P 42/M C M
;
_chemical_formula_sum "Si O2"
_cell_formula_units_Z 72
_cell_length_a 12.616525
_cell_length_b 12.616525
_cell_length_c 23.079475
_cell_angle_alpha 90.000000
_cell_angle_beta 90.000000
_cell_angle_gamma 90.000000
_cell_volume 3673.714739
_symmetry_space_group_name_H-M "P 42/M C M"
_symmetry_group_IT_number 132
_symmetry_cell_setting 'tetragonal'
loop_
_space_group_symop_operation_xyz
x,y,z
-y,x,1/2+z
-x,-y,z
y,-x,1/2+z
x,-y,1/2-z
-x,y,1/2-z
y,x,-z
-y,-x,-z
-x,-y,-z
y,-x,1/2-z
x,y,-z
-y,x,1/2-z
-x,y,1/2+z
x,-y,1/2+z
-y,-x,z
y,x,z
loop_
_atom_site_type_symbol
_atom_site_label
_atom_site_fract_x
_atom_site_fract_y
_atom_site_fract_z
Si Si1 0.109484 0.286750 0.379041
Si Si2 0.625359 0.203347 0.240582
Si Si3 0.817393 0.510567 0.567381
Si Si4 0.585780 0.585780 0.570446
Si Si5 0.699759 0.127003 0.636691
O O1 0.193105 0.193105 0.391612
O O2 0.144295 0.341029 0.318239
O O3 0.115568 0.382556 0.424882
O O4 0.988309 0.251892 0.374430
O O5 0.500000 0.209624 0.250000
O O6 0.681966 0.318035 0.239203
O O7 0.674303 0.141940 0.295449
O O8 0.809639 0.481174 0.500000
O O9 0.701074 0.547408 0.589611
O O10 0.859211 0.411578 0.603443
O O11 0.500000 0.500000 0.588214
O O12 0.589927 0.589927 0.500000
O O13 0.779789 0.220212 0.618935
#
# Coordination Sequence:
#
# PCOD9567412 Si02
#       5
#    16  16  16   8  16
#     4  11  23  40  63  89 119 158 203 249 298 354
#     4  10  21  38  60  90 123 157 196 239 296 359
#     4  11  22  38  60  89 120 155 202 249 298 357
#     4   9  18  34  56  82 117 153 185 235 297 355
#     4  11  24  40  61  89 121 159 201 248 299 354
#
# _framework density 19.598690000000001
#
# number of rings (size 3 to 8) (size 9 to 14) (size 15 to 20)
#    0.000    1.444    3.333    2.000    0.000    4.667 
#    0.000    0.000    0.000    4.000    0.000    3.111 
#    0.000    0.000    0.000    0.000    0.000    0.000 
#
# Total GULP energy -402298.149932 kJ/mol
# GULP energy per Si atom -5587.474305 kJ/mol
# Density = 1.955408 g / cm^3
# Si number density = 19.598690 Si / 1000 Ang^3
#
#
#
# Elastic Constant Matrix: (Units=GPa)
#
#
# Indices 1 2 3 4 5 6 
#
# 1 87.1579 32.7654 2.8919 0.0000 0.0000 0.0000
# 2 32.7654 87.1579 2.8919 0.0000 0.0000 0.0000
# 3 2.8919 2.8919 52.4722 0.0000 0.0000 0.0000
# 4 0.0000 0.0000 0.0000 13.5291 0.0000 0.0000
# 5 0.0000 0.0000 0.0000 0.0000 13.5291 0.0000
# 6 0.0000 0.0000 0.0000 0.0000 0.0000 8.0132
#
#
#
# Elastic Compliance Matrix: (Units=1/GPa)
#
#
# Indices 1 2 3 4 5 6 
#
# 1 0.013373 -0.005012 -0.000461 0.000000 0.000000 0.000000
# 2 -0.005012 0.013373 -0.000461 0.000000 0.000000 0.000000
# 3 -0.000461 -0.000461 0.019109 0.000000 0.000000 0.000000
# 4 0.000000 0.000000 0.000000 0.073915 0.000000 0.000000
# 5 0.000000 0.000000 0.000000 0.000000 0.073915 0.000000
# 6 0.000000 0.000000 0.000000 0.000000 0.000000 0.124794
#
#
# Mechanical properties :
#
#
# Convention : Reuss Voigt Hill
#
# Bulk Modulus (GPa) = 29.42291 33.76513 31.59402
# Shear Modulus (GPa) = 14.63382 19.56352 17.09867
#
# Velocity S-wave (km/s) = 2.73550 3.16287 2.95691
# Velocity P-wave (km/s) = 5.00225 5.53208 5.27383
#
# Compressibility (1/GPa) = 0.03398712
#
# Stress axis : x y z
#
# Youngs Moduli (GPa) = 74.77814 74.77814 52.33272
#
# Poissons Ratio (x) = 0.37479 0.02411
# Poissons Ratio (y) = 0.37479 0.02411
# Poissons Ratio (z) = 0.03446 0.03446
#
# Static dielectric constant tensor:
#      x y z
#    x 1.680210 0.000000 0.000000 
#    y 0.000000 1.680210 0.000000 
#    z 0.000000 0.000000 1.686810 
# 
# From -- ./inp_files/9763.got.cif
#   From: 2010.05.17/outbox.cif.g08.bks.cpg/sg132_5_cif.got.tgz:9763.got - 2010.05.20 12:30:18.
