data_PCOD9568339
_publ_section_title
;
Structure prediction by ZEFSAII (Michael W. Deem and Ramdas Pophale) SiO2 
 PCOD9568339
Probable space group: P 42/N N M
;
_chemical_formula_sum "Si O2"
_cell_formula_units_Z 72
_cell_length_a 16.312991
_cell_length_b 16.312991
_cell_length_c 13.421058
_cell_angle_alpha 90.000000
_cell_angle_beta 90.000000
_cell_angle_gamma 90.000000
_cell_volume 3571.527072
_symmetry_space_group_name_H-M "P 42/N N M"
_symmetry_group_IT_number 134
_space_group.IT_coordinate_system_code '2'
_symmetry_cell_setting 'tetragonal'
loop_
_space_group_symop_operation_xyz
x,y,z
1/2-y,x,1/2+z
1/2-x,1/2-y,z
y,1/2-x,1/2+z
x,1/2-y,1/2-z
1/2-x,y,1/2-z
y,x,-z
1/2-y,1/2-x,-z
-x,-y,-z
1/2+y,-x,1/2-z
1/2+x,1/2+y,-z
-y,1/2+x,1/2-z
-x,1/2+y,1/2+z
1/2+x,-y,1/2+z
-y,-x,z
1/2+y,1/2+x,z
loop_
_atom_site_type_symbol
_atom_site_label
_atom_site_fract_x
_atom_site_fract_y
_atom_site_fract_z
Si Si1 0.216531 0.422524 0.861282
Si Si2 0.704689 0.428333 0.501178
Si Si3 0.601608 0.526190 0.659945
Si Si4 0.653245 0.846756 0.500000
Si Si5 0.015260 0.854768 0.120738
O O1 0.250000 0.420060 0.750000
O O2 0.224554 0.514803 0.906006
O O3 0.122106 0.398144 0.855324
O O4 0.267445 0.360772 0.931714
O O5 0.657250 0.342750 0.482186
O O6 0.642768 0.483889 0.565782
O O7 0.785017 0.427756 0.571296
O O8 0.509767 0.490234 0.668948
O O9 0.648175 0.497483 0.760222
O O10 0.573590 0.849075 0.428891
O O11 0.058899 0.941102 0.099224
#
# Coordination Sequence:
#
# PCOD9568339 Si02
#       5
#    16  16  16   8  16
#     4  11  21  38  62  89 123 160 208 252 304 376
#     4  10  22  39  61  89 122 160 203 255 308 365
#     4  10  20  38  64  88 118 159 205 256 302 361
#     4  10  21  38  59  88 124 164 196 246 306 366
#     4  10  20  36  61  89 121 160 204 251 304 362
#
# _framework density 20.159445000000002
#
# number of rings (size 3 to 8) (size 9 to 14) (size 15 to 20)
#    0.000    1.778    2.222    2.333    0.000    2.222 
#    0.000   10.000    0.000    4.000    0.000    0.000 
#    0.000    0.000    0.000    0.000    0.000    0.000 
#
# Total GULP energy -402060.938451 kJ/mol
# GULP energy per Si atom -5584.179701 kJ/mol
# Density = 2.011356 g / cm^3
# Si number density = 20.159445 Si / 1000 Ang^3
#
#
#
# Elastic Constant Matrix: (Units=GPa)
#
#
# Indices 1 2 3 4 5 6 
#
# 1 85.5971 53.6632 36.7933 0.0000 0.0000 0.0000
# 2 53.6632 85.5974 36.7930 0.0000 0.0000 0.0000
# 3 36.7933 36.7930 111.8050 0.0000 0.0000 0.0000
# 4 0.0000 0.0000 0.0000 21.2468 0.0000 0.0000
# 5 0.0000 0.0000 0.0000 0.0000 21.2465 0.0000
# 6 0.0000 0.0000 0.0000 0.0000 0.0000 28.9403
#
#
#
# Elastic Compliance Matrix: (Units=1/GPa)
#
#
# Indices 1 2 3 4 5 6 
#
# 1 0.020004 -0.011311 -0.002861 0.000000 0.000000 0.000000
# 2 -0.011311 0.020003 -0.002860 0.000000 0.000000 0.000000
# 3 -0.002861 -0.002860 0.010827 0.000000 0.000000 0.000000
# 4 0.000000 0.000000 0.000000 0.047066 0.000000 0.000000
# 5 0.000000 0.000000 0.000000 0.000000 0.047066 0.000000
# 6 0.000000 0.000000 0.000000 0.000000 0.000000 0.034554
#
#
# Mechanical properties :
#
#
# Convention : Reuss Voigt Hill
#
# Bulk Modulus (GPa) = 59.63223 59.72206 59.67714
# Shear Modulus (GPa) = 22.81291 24.67006 23.74149
#
# Velocity S-wave (km/s) = 3.36761 3.50200 3.43547
# Velocity P-wave (km/s) = 6.69071 6.78537 6.73820
#
# Compressibility (1/GPa) = 0.01676946
#
# Stress axis : x y z
#
# Youngs Moduli (GPa) = 49.99123 49.99155 92.36324
#
# Poissons Ratio (x) = 0.56546 0.26421
# Poissons Ratio (y) = 0.56546 0.26420
# Poissons Ratio (z) = 0.14300 0.14300
#
# Static dielectric constant tensor:
#      x y z
#    x 1.731630 0.000000 0.000000 
#    y 0.000000 1.731630 0.000000 
#    z 0.000000 0.000000 1.704430 
# 
# From -- ./inp_files/4741.got.cif
#   From: 2010.05.17/outbox.cif.g08.bks.cpg/sg134_3_cif.got.tgz:4741.got - 2010.05.20 12:42:49.
