data_PCOD9568198
_publ_section_title
;
Structure prediction by ZEFSAII (Michael W. Deem and Ramdas Pophale) SiO2 
 PCOD9568198
Probable space group: P 42/N N M
;
_chemical_formula_sum "Si O2"
_cell_formula_units_Z 128
_cell_length_a 18.027013
_cell_length_b 18.027013
_cell_length_c 22.585950
_cell_angle_alpha 90.000000
_cell_angle_beta 90.000000
_cell_angle_gamma 90.000000
_cell_volume 7339.828395
_symmetry_space_group_name_H-M "P 42/N N M"
_symmetry_group_IT_number 134
_space_group.IT_coordinate_system_code '2'
_symmetry_cell_setting 'tetragonal'
loop_
_space_group_symop_operation_xyz
x,y,z
1/2-y,x,1/2+z
1/2-x,1/2-y,z
y,1/2-x,1/2+z
x,1/2-y,1/2-z
1/2-x,y,1/2-z
y,x,-z
1/2-y,1/2-x,-z
-x,-y,-z
1/2+y,-x,1/2-z
1/2+x,1/2+y,-z
-y,1/2+x,1/2-z
-x,1/2+y,1/2+z
1/2+x,-y,1/2+z
-y,-x,z
1/2+y,1/2+x,z
loop_
_atom_site_type_symbol
_atom_site_label
_atom_site_fract_x
_atom_site_fract_y
_atom_site_fract_z
Si Si1 0.517336 0.894905 0.315833
Si Si2 0.396991 0.016283 0.832986
Si Si3 0.873747 0.751563 0.496887
Si Si4 0.874742 0.249024 0.493295
Si Si5 0.640532 0.480180 0.687773
Si Si6 0.947467 0.823249 0.783786
Si Si7 0.997075 0.229981 0.904896
Si Si8 0.747990 0.993772 0.097495
O O1 0.484584 0.851861 0.258698
O O2 0.606067 0.899274 0.305157
O O3 0.499828 0.851315 0.375736
O O4 0.475009 0.975009 0.314994
O O5 0.450129 0.087163 0.827385
O O6 0.358532 0.004411 0.769135
O O7 0.334820 0.024293 0.881539
O O8 0.447472 0.947472 0.847994
O O9 0.830196 0.830196 0.500000
O O10 0.810888 0.689113 0.500000
O O11 0.926090 0.746542 0.439225
O O12 0.929088 0.734215 0.551112
O O13 0.826649 0.173352 0.496237
O O14 0.816133 0.316133 0.492129
O O15 0.930048 0.258523 0.548952
O O16 0.927956 0.251323 0.435900
O O17 0.593643 0.406358 0.673370
O O18 0.713120 0.486509 0.648981
O O19 0.912907 0.750000 0.750000
O O20 0.988820 0.795903 0.842596
#
# Coordination Sequence:
#
# PCOD9568198 Si02
#       8
#    16  16  16  16  16  16  16  16
#     4  10  20  34  53  78 107 136 169 213 260 309
#     4   9  17  31  52  77 102 127 158 202 256 309
#     4  10  21  35  50  71 101 135 169 209 254 298
#     4  10  22  37  51  71 100 134 174 221 266 304
#     4   9  18  32  52  78 104 129 162 208 260 311
#     4   9  18  32  52  77 104 132 163 202 252 308
#     4  11  20  34  55  74  99 136 177 213 255 312
#     4  10  19  33  53  74  97 131 171 207 249 307
#
# _framework density 17.439098999999999
#
# number of rings (size 3 to 8) (size 9 to 14) (size 15 to 20)
#    0.000    2.250    0.000    4.125    0.000    1.000 
#    0.000    0.000    0.000   16.125    0.000   11.375 
#    0.000    0.000    0.000    0.000    0.000    0.000 
#
# Total GULP energy -712902.694624 kJ/mol
# GULP energy per Si atom -5569.552302 kJ/mol
# Density = 1.739941 g / cm^3
# Si number density = 17.439099 Si / 1000 Ang^3
#
#
#
# Elastic Constant Matrix: (Units=GPa)
#
#
# Indices 1 2 3 4 5 6 
#
# 1 79.6275 25.7826 32.9962 0.0000 0.0000 0.0000
# 2 25.7826 79.6258 32.9957 0.0000 0.0000 0.0000
# 3 32.9962 32.9957 80.5642 0.0000 0.0000 0.0000
# 4 0.0000 0.0000 0.0000 20.3571 0.0000 0.0000
# 5 0.0000 0.0000 0.0000 0.0000 20.3569 0.0000
# 6 0.0000 0.0000 0.0000 0.0000 0.0000 7.8210
#
#
#
# Elastic Compliance Matrix: (Units=1/GPa)
#
#
# Indices 1 2 3 4 5 6 
#
# 1 0.015665 -0.002907 -0.005225 0.000000 0.000000 0.000000
# 2 -0.002907 0.015665 -0.005225 0.000000 0.000000 0.000000
# 3 -0.005225 -0.005225 0.016693 0.000000 0.000000 0.000000
# 4 0.000000 0.000000 0.000000 0.049123 0.000000 0.000000
# 5 0.000000 0.000000 0.000000 0.000000 0.049123 0.000000
# 6 0.000000 0.000000 0.000000 0.000000 0.000000 0.127860
#
#
# Mechanical properties :
#
#
# Convention : Reuss Voigt Hill
#
# Bulk Modulus (GPa) = 46.93101 47.04073 46.98587
# Shear Modulus (GPa) = 16.23657 19.57654 17.90655
#
# Velocity S-wave (km/s) = 3.05461 3.35411 3.20786
# Velocity P-wave (km/s) = 6.27779 6.48328 6.38136
#
# Compressibility (1/GPa) = 0.02130788
#
# Stress axis : x y z
#
# Youngs Moduli (GPa) = 63.83665 63.83542 59.90691
#
# Poissons Ratio (x) = 0.18557 0.31303
# Poissons Ratio (y) = 0.18557 0.31303
# Poissons Ratio (z) = 0.33356 0.33355
#
# Static dielectric constant tensor:
#      x y z
#    x 1.585580 0.000000 0.000000 
#    y 0.000000 1.585580 0.000000 
#    z 0.000000 0.000000 1.586750 
# 
# From -- ./inp_files/10312.got.cif
#   From: 2010.05.17/outbox.cif.g08.bks.cpg/sg134_6_cif.got.tgz:10312.got - 2010.05.20 12:42:49.
