data_PCOD9568772
_publ_section_title
;
Structure prediction by ZEFSAII (Michael W. Deem and Ramdas Pophale) SiO2 
 PCOD9568772
Probable space group: P 42/M B C
;
_chemical_formula_sum "Si O2"
_cell_formula_units_Z 64
_cell_length_a 20.445513
_cell_length_b 20.445513
_cell_length_c 8.198533
_cell_angle_alpha 90.000000
_cell_angle_beta 90.000000
_cell_angle_gamma 90.000000
_cell_volume 3427.142581
_symmetry_space_group_name_H-M "P 42/M B C"
_symmetry_group_IT_number 135
_symmetry_cell_setting 'tetragonal'
loop_
_space_group_symop_operation_xyz
x,y,z
-y,x,1/2+z
-x,-y,z
y,-x,1/2+z
1/2+x,1/2-y,-z
1/2-x,1/2+y,-z
1/2+y,1/2+x,1/2-z
1/2-y,1/2-x,1/2-z
-x,-y,-z
y,-x,1/2-z
x,y,-z
-y,x,1/2-z
1/2-x,1/2+y,z
1/2+x,1/2-y,z
1/2-y,1/2-x,1/2+z
1/2+y,1/2+x,1/2+z
loop_
_atom_site_type_symbol
_atom_site_label
_atom_site_fract_x
_atom_site_fract_y
_atom_site_fract_z
Si Si1 0.749939 0.851368 0.306394
Si Si2 0.996141 0.253252 0.687236
Si Si3 0.502384 0.103256 0.804843
Si Si4 0.754127 0.643132 0.197765
O O1 0.680720 0.819281 0.250000
O O2 0.748446 0.847542 0.500000
O O3 0.766205 0.926148 0.261529
O O4 0.806940 0.802557 0.245767
O O5 0.996113 0.231728 0.500000
O O6 0.993573 0.331130 0.705804
O O7 0.069120 0.239600 0.757482
O O8 0.569016 0.069016 0.750000
O O9 0.446081 0.053920 0.750000
O O10 0.500659 0.113905 0.000000
O O11 0.822095 0.677906 0.250000
O O12 0.754771 0.640464 0.000000
#
# Coordination Sequence:
#
# PCOD9568772 Si02
#       4
#    16  16  16  16
#     4  10  20  36  55  78 105 137 173 214 258 307
#     4  11  21  34  52  76 102 133 170 212 257 307
#     4  11  21  33  47  68  99 135 169 205 246 298
#     4   9  20  36  55  77 105 136 172 213 258 307
#
# _framework density 18.674451000000001
#
# number of rings (size 3 to 8) (size 9 to 14) (size 15 to 20)
#    0.000    1.750    0.000    6.000    0.000    5.000 
#    0.000    0.000    0.000    0.750    0.000    5.250 
#    0.000    0.000    0.000    0.000    0.000    0.000 
#
# Total GULP energy -356751.662184 kJ/mol
# GULP energy per Si atom -5574.244722 kJ/mol
# Density = 1.863195 g / cm^3
# Si number density = 18.674451 Si / 1000 Ang^3
#
#
#
# Elastic Constant Matrix: (Units=GPa)
#
#
# Indices 1 2 3 4 5 6 
#
# 1 103.4430 36.7213 0.2894 0.0000 0.0000 0.0000
# 2 36.7213 103.4403 0.2884 0.0000 0.0000 0.0000
# 3 0.2894 0.2884 31.3438 0.0000 0.0000 0.0000
# 4 0.0000 0.0000 0.0000 18.4617 0.0000 0.0000
# 5 0.0000 0.0000 0.0000 0.0000 18.4619 0.0000
# 6 0.0000 0.0000 0.0000 0.0000 0.0000 25.6208
#
#
#
# Elastic Compliance Matrix: (Units=1/GPa)
#
#
# Indices 1 2 3 4 5 6 
#
# 1 0.011061 -0.003927 -0.000066 0.000000 0.000000 0.000000
# 2 -0.003927 0.011062 -0.000066 0.000000 0.000000 0.000000
# 3 -0.000066 -0.000066 0.031905 0.000000 0.000000 0.000000
# 4 0.000000 0.000000 0.000000 0.054166 0.000000 0.000000
# 5 0.000000 0.000000 0.000000 0.000000 0.054166 0.000000
# 6 0.000000 0.000000 0.000000 0.000000 0.000000 0.039031
#
#
# Mechanical properties :
#
#
# Convention : Reuss Voigt Hill
#
# Bulk Modulus (GPa) = 21.78075 34.75835 28.26955
# Shear Modulus (GPa) = 22.24089 25.90407 24.07248
#
# Velocity S-wave (km/s) = 3.45480 3.72847 3.59424
# Velocity P-wave (km/s) = 5.25385 6.09824 5.69172
#
# Compressibility (1/GPa) = 0.04591209
#
# Stress axis : x y z
#
# Youngs Moduli (GPa) = 90.40585 90.40348 31.34259
#
# Poissons Ratio (x) = 0.35497 0.00207
# Poissons Ratio (y) = 0.35498 0.00205
# Poissons Ratio (z) = 0.00597 0.00592
#
# Static dielectric constant tensor:
#      x y z
#    x 1.744100 0.000000 0.000000 
#    y 0.000000 1.744080 0.000000 
#    z 0.000000 0.000000 1.661650 
# 
# From -- ./inp_files/947.got.cif
#   From: 2010.05.17/outbox.cif.g08.bks.cpg/sg135_1_cif.got.tgz:947.got - 2010.05.20 12:50:20.
