data_PCOD9568318
_publ_section_title
;
Structure prediction by ZEFSAII (Michael W. Deem and Ramdas Pophale) SiO2 
 PCOD9568318
Probable space group: P 42/N N M
;
_chemical_formula_sum "Si O2"
_cell_formula_units_Z 96
_cell_length_a 15.024955
_cell_length_b 15.024955
_cell_length_c 20.207995
_cell_angle_alpha 90.000000
_cell_angle_beta 90.000000
_cell_angle_gamma 90.000000
_cell_volume 4561.940175
_symmetry_space_group_name_H-M "P 42/N N M"
_symmetry_group_IT_number 134
_space_group.IT_coordinate_system_code '2'
_symmetry_cell_setting 'tetragonal'
loop_
_space_group_symop_operation_xyz
x,y,z
1/2-y,x,1/2+z
1/2-x,1/2-y,z
y,1/2-x,1/2+z
x,1/2-y,1/2-z
1/2-x,y,1/2-z
y,x,-z
1/2-y,1/2-x,-z
-x,-y,-z
1/2+y,-x,1/2-z
1/2+x,1/2+y,-z
-y,1/2+x,1/2-z
-x,1/2+y,1/2+z
1/2+x,-y,1/2+z
-y,-x,z
1/2+y,1/2+x,z
loop_
_atom_site_type_symbol
_atom_site_label
_atom_site_fract_x
_atom_site_fract_y
_atom_site_fract_z
Si Si1 0.478926 0.663569 0.559796
Si Si2 0.822590 0.028597 0.800229
Si Si3 0.253440 0.896215 0.072217
Si Si4 0.583222 0.216999 0.319568
Si Si5 0.778280 0.851580 0.060545
Si Si6 0.607798 0.662753 0.793381
O O1 0.436573 0.563427 0.558157
O O2 0.436243 0.714742 0.497210
O O3 0.447603 0.707862 0.629110
O O4 0.582511 0.693075 0.554047
O O5 0.750000 0.067127 0.750000
O O6 0.909158 0.090843 0.802150
O O7 0.777869 0.032800 0.873054
O O8 0.848613 0.930407 0.774826
O O9 0.171680 0.828321 0.061730
O O10 0.335741 0.835741 0.098012
O O11 0.619549 0.250000 0.250000
O O12 0.655011 0.155011 0.354544
O O13 0.498848 0.160151 0.294142
O O14 0.750000 0.750000 0.065706
O O15 0.822374 0.872556 0.129889
O O16 0.848945 0.848945 0.000000
O O17 0.633804 0.750000 0.750000
#
# Coordination Sequence:
#
# PCOD9568318 Si02
#       6
#    16  16  16  16  16  16
#     4  10  20  36  59  90 123 159 202 253 307 370
#     4  11  23  38  61  90 120 157 204 256 312 373
#     4   9  18  34  58  89 125 159 193 243 308 373
#     4  10  20  35  57  88 125 162 196 242 301 365
#     4  10  22  40  62  84 116 161 207 255 309 369
#     4  10  23  40  62  85 118 159 207 253 301 364
#
# _framework density 21.043676999999999
#
# number of rings (size 3 to 8) (size 9 to 14) (size 15 to 20)
#    0.000    2.000    0.000    3.000    2.333    2.667 
#    0.000    2.500    0.000    8.000    0.000    0.000 
#    0.000    0.000    0.000    0.000    0.000    0.000 
#
# Total GULP energy -534969.618456 kJ/mol
# GULP energy per Si atom -5572.600192 kJ/mol
# Density = 2.099578 g / cm^3
# Si number density = 21.043677 Si / 1000 Ang^3
#
#
#
# Elastic Constant Matrix: (Units=GPa)
#
#
# Indices 1 2 3 4 5 6 
#
# 1 85.9043 61.5499 20.9594 0.0000 0.0000 0.0000
# 2 61.5499 85.9043 20.9594 0.0000 0.0000 0.0000
# 3 20.9594 20.9594 104.3558 0.0000 0.0000 0.0000
# 4 0.0000 0.0000 0.0000 23.1410 0.0000 0.0000
# 5 0.0000 0.0000 0.0000 0.0000 23.1410 0.0000
# 6 0.0000 0.0000 0.0000 0.0000 0.0000 18.8137
#
#
#
# Elastic Compliance Matrix: (Units=1/GPa)
#
#
# Indices 1 2 3 4 5 6 
#
# 1 0.024126 -0.016934 -0.001445 0.000000 0.000000 0.000000
# 2 -0.016934 0.024126 -0.001445 0.000000 0.000000 0.000000
# 3 -0.001445 -0.001445 0.010163 0.000000 0.000000 0.000000
# 4 0.000000 0.000000 0.000000 0.043213 0.000000 0.000000
# 5 0.000000 0.000000 0.000000 0.000000 0.043213 0.000000
# 6 0.000000 0.000000 0.000000 0.000000 0.000000 0.053153
#
#
# Mechanical properties :
#
#
# Convention : Reuss Voigt Hill
#
# Bulk Modulus (GPa) = 53.27801 53.67797 53.47799
# Shear Modulus (GPa) = 20.50039 24.53218 22.51629
#
# Velocity S-wave (km/s) = 3.12458 3.41805 3.27460
# Velocity P-wave (km/s) = 6.19597 6.41410 6.30598
#
# Compressibility (1/GPa) = 0.01876947
#
# Stress axis : x y z
#
# Youngs Moduli (GPa) = 41.44841 41.44841 98.39737
#
# Poissons Ratio (x) = 0.70189 0.14214
# Poissons Ratio (y) = 0.70189 0.14214
# Poissons Ratio (z) = 0.05987 0.05987
#
# Static dielectric constant tensor:
#      x y z
#    x 1.665610 0.000000 0.000000 
#    y 0.000000 1.665610 0.000000 
#    z 0.000000 0.000000 1.844880 
# 
# From -- ./inp_files/9115.got.cif
#   From: 2010.05.17/outbox.cif.g08.bks.cpg/sg134_5_cif.got.tgz:9115.got - 2010.05.20 12:42:49.
