data_PCOD9568170
_publ_section_title
;
Structure prediction by ZEFSAII (Michael W. Deem and Ramdas Pophale) SiO2 
 PCOD9568170
Probable space group: P 42/N N M
;
_chemical_formula_sum "Si O2"
_cell_formula_units_Z 112
_cell_length_a 23.624560
_cell_length_b 23.624560
_cell_length_c 12.157901
_cell_angle_alpha 90.000000
_cell_angle_beta 90.000000
_cell_angle_gamma 90.000000
_cell_volume 6785.565702
_symmetry_space_group_name_H-M "P 42/N N M"
_symmetry_group_IT_number 134
_space_group.IT_coordinate_system_code '2'
_symmetry_cell_setting 'tetragonal'
loop_
_space_group_symop_operation_xyz
x,y,z
1/2-y,x,1/2+z
1/2-x,1/2-y,z
y,1/2-x,1/2+z
x,1/2-y,1/2-z
1/2-x,y,1/2-z
y,x,-z
1/2-y,1/2-x,-z
-x,-y,-z
1/2+y,-x,1/2-z
1/2+x,1/2+y,-z
-y,1/2+x,1/2-z
-x,1/2+y,1/2+z
1/2+x,-y,1/2+z
-y,-x,z
1/2+y,1/2+x,z
loop_
_atom_site_type_symbol
_atom_site_label
_atom_site_fract_x
_atom_site_fract_y
_atom_site_fract_z
Si Si1 0.411338 0.498542 0.552583
Si Si2 0.210577 0.526591 0.966986
Si Si3 0.524949 0.380810 0.813244
Si Si4 0.399445 0.802882 0.173450
Si Si5 0.015537 0.665720 0.555017
Si Si6 0.433624 0.027975 0.694165
Si Si7 0.189314 0.901676 0.747047
O O1 0.452032 0.452032 0.500000
O O2 0.440513 0.559488 0.526782
O O3 0.347917 0.494753 0.508192
O O4 0.414725 0.489451 0.683460
O O5 0.270073 0.493967 0.963634
O O6 0.199017 0.551223 0.845635
O O7 0.215975 0.578038 0.053987
O O8 0.568735 0.431266 0.791428
O O9 0.545874 0.331638 0.732532
O O10 0.464371 0.411269 0.801475
O O11 0.531727 0.359060 0.937232
O O12 0.382268 0.750000 0.250000
O O13 0.349173 0.849173 0.166143
O O14 0.068604 0.673453 0.638008
O O15 0.975466 0.620014 0.614093
O O16 0.480309 0.980309 0.658094
O O17 0.250000 0.871056 0.750000
O O18 0.139496 0.860505 0.713769
#
# Coordination Sequence:
#
# PCOD9568170 Si02
#       7
#    16  16  16  16  16  16  16
#     4  10  19  32  52  77 103 134 173 215 259 314
#     4  11  21  35  53  73 102 138 172 211 262 318
#     4  10  20  34  53  76 103 136 173 217 266 315
#     4  11  22  38  55  72  99 139 185 230 271 311
#     4  11  20  32  51  74 106 138 167 206 260 318
#     4  10  19  31  51  78 105 134 169 210 262 321
#     4  10  20  32  48  68  93 131 173 213 256 298
#
# _framework density 16.505624999999998
#
# number of rings (size 3 to 8) (size 9 to 14) (size 15 to 20)
#    0.000    1.571    2.857    3.857    0.000    3.714 
#    0.000    0.000    0.000    1.714    0.000    0.000 
#    0.000    2.286    0.857    0.000    0.000    0.000 
#
# Total GULP energy -624472.683802 kJ/mol
# GULP energy per Si atom -5575.648963 kJ/mol
# Density = 1.646806 g / cm^3
# Si number density = 16.505625 Si / 1000 Ang^3
#
#
#
# Elastic Constant Matrix: (Units=GPa)
#
#
# Indices 1 2 3 4 5 6 
#
# 1 67.8939 20.7139 3.9811 0.0000 0.0000 0.0000
# 2 20.7139 67.8939 3.9811 0.0000 0.0000 0.0000
# 3 3.9811 3.9811 64.0277 0.0000 0.0000 0.0000
# 4 0.0000 0.0000 0.0000 17.8042 0.0000 0.0000
# 5 0.0000 0.0000 0.0000 0.0000 17.8042 0.0000
# 6 0.0000 0.0000 0.0000 0.0000 0.0000 15.3032
#
#
#
# Elastic Compliance Matrix: (Units=1/GPa)
#
#
# Indices 1 2 3 4 5 6 
#
# 1 0.016272 -0.004923 -0.000706 0.000000 0.000000 0.000000
# 2 -0.004923 0.016272 -0.000706 0.000000 0.000000 0.000000
# 3 -0.000706 -0.000706 0.015706 0.000000 0.000000 0.000000
# 4 0.000000 0.000000 0.000000 0.056167 0.000000 0.000000
# 5 0.000000 0.000000 0.000000 0.000000 0.056167 0.000000
# 6 0.000000 0.000000 0.000000 0.000000 0.000000 0.065346
#
#
# Mechanical properties :
#
#
# Convention : Reuss Voigt Hill
#
# Bulk Modulus (GPa) = 28.10444 28.57417 28.33930
# Shear Modulus (GPa) = 19.96335 21.59161 20.77748
#
# Velocity S-wave (km/s) = 3.48154 3.62074 3.55182
# Velocity P-wave (km/s) = 5.76417 5.90161 5.83330
#
# Compressibility (1/GPa) = 0.03558156
#
# Stress axis : x y z
#
# Youngs Moduli (GPa) = 61.45424 61.45424 63.67001
#
# Poissons Ratio (x) = 0.30255 0.04493
# Poissons Ratio (y) = 0.30255 0.04493
# Poissons Ratio (z) = 0.04337 0.04337
#
# Static dielectric constant tensor:
#      x y z
#    x 1.579180 0.000000 0.000000 
#    y 0.000000 1.579180 0.000000 
#    z 0.000000 0.000000 1.593190 
# 
# From -- ./inp_files/5251.got.cif
#   From: 2010.05.17/outbox.cif.g08.bks.cpg/sg134_3_cif.got.tgz:5251.got - 2010.05.20 12:42:49.
