data_PCOD9568823
_publ_section_title
;
Structure prediction by ZEFSAII (Michael W. Deem and Ramdas Pophale) SiO2 
 PCOD9568823
Probable space group: P 42/M B C
;
_chemical_formula_sum "Si O2"
_cell_formula_units_Z 64
_cell_length_a 12.105533
_cell_length_b 12.105533
_cell_length_c 18.821937
_cell_angle_alpha 90.000000
_cell_angle_beta 90.000000
_cell_angle_gamma 90.000000
_cell_volume 2758.240603
_symmetry_space_group_name_H-M "P 42/M B C"
_symmetry_group_IT_number 135
_symmetry_cell_setting 'tetragonal'
loop_
_space_group_symop_operation_xyz
x,y,z
-y,x,1/2+z
-x,-y,z
y,-x,1/2+z
1/2+x,1/2-y,-z
1/2-x,1/2+y,-z
1/2+y,1/2+x,1/2-z
1/2-y,1/2-x,1/2-z
-x,-y,-z
y,-x,1/2-z
x,y,-z
-y,x,1/2-z
1/2-x,1/2+y,z
1/2+x,1/2-y,z
1/2-y,1/2-x,1/2+z
1/2+y,1/2+x,1/2+z
loop_
_atom_site_type_symbol
_atom_site_label
_atom_site_fract_x
_atom_site_fract_y
_atom_site_fract_z
Si Si1 0.889418 0.074029 0.922865
Si Si2 0.285160 0.929870 0.302572
Si Si3 0.228728 0.077437 0.820870
Si Si4 0.662937 0.926808 0.581546
O O1 0.913828 0.203421 0.919421
O O2 0.820593 0.032484 0.856557
O O3 0.835002 0.052015 0.000000
O O4 0.000000 0.000000 0.922001
O O5 0.357860 0.857860 0.250000
O O6 0.173896 0.862769 0.319419
O O7 0.260485 0.042484 0.258805
O O8 0.351920 0.961218 0.373515
O O9 0.327125 0.114229 0.872487
O O10 0.625221 0.929405 0.500000
#
# Coordination Sequence:
#
# PCOD9568823 Si02
#       4
#    16  16  16  16
#     4  10  20  39  68  98 129 171 220 272 331 400
#     4  12  26  44  67  98 136 177 226 280 337 404
#     4  12  24  42  68 101 136 175 223 278 338 407
#     4  11  25  45  69  99 135 179 226 280 341 403
#
# _framework density 23.203199000000001
#
# number of rings (size 3 to 8) (size 9 to 14) (size 15 to 20)
#    0.000    0.750    2.500    6.000    0.000    3.000 
#    0.000    3.750    0.000    0.000    0.000    0.000 
#    0.000    0.000    0.000    0.000    0.000    0.000 
#
# Total GULP energy -358276.322712 kJ/mol
# GULP energy per Si atom -5598.067542 kJ/mol
# Density = 2.315039 g / cm^3
# Si number density = 23.203199 Si / 1000 Ang^3
#
#
#
# Elastic Constant Matrix: (Units=GPa)
#
#
# Indices 1 2 3 4 5 6 
#
# 1 43.0489 33.4129 25.9969 0.0000 0.0000 0.0000
# 2 33.4129 43.0489 25.9969 0.0000 0.0000 0.0000
# 3 25.9969 25.9969 160.7385 0.0000 0.0000 0.0000
# 4 0.0000 0.0000 0.0000 33.8573 0.0000 0.0000
# 5 0.0000 0.0000 0.0000 0.0000 33.8573 0.0000
# 6 0.0000 0.0000 0.0000 0.0000 0.0000 25.9399
#
#
#
# Elastic Compliance Matrix: (Units=1/GPa)
#
#
# Indices 1 2 3 4 5 6 
#
# 1 0.059236 -0.044541 -0.002377 0.000000 0.000000 0.000000
# 2 -0.044541 0.059236 -0.002377 0.000000 0.000000 0.000000
# 3 -0.002377 -0.002377 0.006990 0.000000 0.000000 0.000000
# 4 0.000000 0.000000 0.000000 0.029536 0.000000 0.000000
# 5 0.000000 0.000000 0.000000 0.000000 0.029536 0.000000
# 6 0.000000 0.000000 0.000000 0.000000 0.000000 0.038551
#
#
# Mechanical properties :
#
#
# Convention : Reuss Voigt Hill
#
# Bulk Modulus (GPa) = 37.21254 46.40552 41.80903
# Shear Modulus (GPa) = 15.12263 29.49287 22.30775
#
# Velocity S-wave (km/s) = 2.55570 3.56907 3.10402
# Velocity P-wave (km/s) = 4.97808 6.08502 5.55917
#
# Compressibility (1/GPa) = 0.02687266
#
# Stress axis : x y z
#
# Youngs Moduli (GPa) = 16.88168 16.88168 143.06063
#
# Poissons Ratio (x) = 0.75193 0.34000
# Poissons Ratio (y) = 0.75193 0.34000
# Poissons Ratio (z) = 0.04012 0.04012
#
# Static dielectric constant tensor:
#      x y z
#    x 1.868070 0.000000 0.000000 
#    y 0.000000 1.868070 0.000000 
#    z 0.000000 0.000000 1.908860 
# 
# From -- ./inp_files/3164.got.cif
#   From: 2010.05.17/outbox.cif.g08.bks.cpg/sg135_2_cif.got.tgz:3164.got - 2010.05.20 12:50:20.
