data_PCOD9568745
_publ_section_title
;
Structure prediction by ZEFSAII (Michael W. Deem and Ramdas Pophale) SiO2 
 PCOD9568745
Probable space group: P 42/M B C
;
_chemical_formula_sum "Si O2"
_cell_formula_units_Z 96
_cell_length_a 24.600391
_cell_length_b 24.600391
_cell_length_c 8.340990
_cell_angle_alpha 90.000000
_cell_angle_beta 90.000000
_cell_angle_gamma 90.000000
_cell_volume 5047.793967
_symmetry_space_group_name_H-M "P 42/M B C"
_symmetry_group_IT_number 135
_symmetry_cell_setting 'tetragonal'
loop_
_space_group_symop_operation_xyz
x,y,z
-y,x,1/2+z
-x,-y,z
y,-x,1/2+z
1/2+x,1/2-y,-z
1/2-x,1/2+y,-z
1/2+y,1/2+x,1/2-z
1/2-y,1/2-x,1/2-z
-x,-y,-z
y,-x,1/2-z
x,y,-z
-y,x,1/2-z
1/2-x,1/2+y,z
1/2+x,1/2-y,z
1/2-y,1/2-x,1/2+z
1/2+y,1/2+x,1/2+z
loop_
_atom_site_type_symbol
_atom_site_label
_atom_site_fract_x
_atom_site_fract_y
_atom_site_fract_z
Si Si1 0.365879 0.218082 0.191950
Si Si2 0.193499 0.222790 0.306668
Si Si3 0.913869 0.499696 0.192246
Si Si4 0.790586 0.487250 0.193209
Si Si5 0.079085 0.966621 0.191471
Si Si6 0.801365 0.071167 0.803764
O O1 0.337240 0.162761 0.250000
O O2 0.326379 0.267025 0.246802
O O3 0.426130 0.223499 0.257724
O O4 0.367331 0.218138 0.000000
O O5 0.221778 0.278223 0.250000
O O6 0.193455 0.222812 0.500000
O O7 0.132189 0.213011 0.251617
O O8 0.948858 0.551143 0.250000
O O9 0.851767 0.500249 0.250267
O O10 0.946382 0.446382 0.250000
O O11 0.914134 0.499342 0.000000
O O12 0.744935 0.529271 0.250569
O O13 0.791490 0.490233 0.000000
O O14 0.138359 0.947136 0.246780
O O15 0.029463 0.932486 0.266012
O O16 0.076051 0.960446 0.000000
O O17 0.801562 0.070846 0.000000
#
# Coordination Sequence:
#
# PCOD9568745 Si02
#       6
#    16  16  16  16  16  16
#     4  10  20  34  56  82 108 140 179 226 271 317
#     4   9  19  37  57  78 106 142 181 220 268 320
#     4  10  20  34  54  77 104 138 176 217 262 316
#     4  10  21  36  54  79 109 142 179 219 268 322
#     4  10  20  36  58  81 109 144 182 227 276 327
#     4   9  20  37  56  79 111 149 180 219 276 327
#
# _framework density 19.018208000000001
#
# number of rings (size 3 to 8) (size 9 to 14) (size 15 to 20)
#    0.000    2.333    0.000    3.000    2.333    4.000 
#    0.000    3.333    0.000    0.000    0.000    0.000 
#    0.000    0.000    0.000    0.000    0.000    0.000 
#
# Total GULP energy -535985.111907 kJ/mol
# GULP energy per Si atom -5583.178249 kJ/mol
# Density = 1.897492 g / cm^3
# Si number density = 19.018208 Si / 1000 Ang^3
#
#
#
# Elastic Constant Matrix: (Units=GPa)
#
#
# Indices 1 2 3 4 5 6 
#
# 1 153.1353 108.1069 3.8924 0.0000 0.0000 0.0000
# 2 108.1069 153.1336 3.8991 0.0000 0.0000 0.0000
# 3 3.8924 3.8991 7.9200 0.0000 0.0000 0.0000
# 4 0.0000 0.0000 0.0000 17.0743 0.0000 0.0000
# 5 0.0000 0.0000 0.0000 0.0000 17.0742 0.0000
# 6 0.0000 0.0000 0.0000 0.0000 0.0000 17.9995
#
#
#
# Elastic Compliance Matrix: (Units=1/GPa)
#
#
# Indices 1 2 3 4 5 6 
#
# 1 0.013046 -0.009162 -0.001901 0.000000 0.000000 0.000000
# 2 -0.009162 0.013047 -0.001921 0.000000 0.000000 0.000000
# 3 -0.001901 -0.001921 0.128143 0.000000 0.000000 0.000000
# 4 0.000000 0.000000 0.000000 0.058568 0.000000 0.000000
# 5 0.000000 0.000000 0.000000 0.000000 0.058568 0.000000
# 6 0.000000 0.000000 0.000000 0.000000 0.000000 0.055557
#
#
# Mechanical properties :
#
#
# Convention : Reuss Voigt Hill
#
# Bulk Modulus (GPa) = 7.79614 60.66508 34.23061
# Shear Modulus (GPa) = 12.63735 23.64896 18.14316
#
# Velocity S-wave (km/s) = 2.58056 3.53014 3.09202
# Velocity P-wave (km/s) = 3.60378 6.97019 5.54846
#
# Compressibility (1/GPa) = 0.12826863
#
# Stress axis : x y z
#
# Youngs Moduli (GPa) = 76.64955 76.64535 7.80380
#
# Poissons Ratio (x) = 0.70222 0.01484
# Poissons Ratio (y) = 0.70225 0.01499
# Poissons Ratio (z) = 0.14574 0.14720
#
# Static dielectric constant tensor:
#      x y z
#    x 1.644430 0.000000 0.000000 
#    y 0.000000 1.644430 0.000000 
#    z 0.000000 0.000000 1.657560 
# 
# From -- ./inp_files/1247.got.cif
#   From: 2010.05.17/outbox.cif.g08.bks.cpg/sg135_1_cif.got.tgz:1247.got - 2010.05.20 12:50:20.
