data_PCOD9568406
_publ_section_title
;
Structure prediction by ZEFSAII (Michael W. Deem and Ramdas Pophale) SiO2 
 PCOD9568406
Probable space group: P 42/N N M
;
_chemical_formula_sum "Si O2"
_cell_formula_units_Z 64
_cell_length_a 13.095315
_cell_length_b 13.095315
_cell_length_c 17.738412
_cell_angle_alpha 90.000000
_cell_angle_beta 90.000000
_cell_angle_gamma 90.000000
_cell_volume 3041.911936
_symmetry_space_group_name_H-M "P 42/N N M"
_symmetry_group_IT_number 134
_space_group.IT_coordinate_system_code '2'
_symmetry_cell_setting 'tetragonal'
loop_
_space_group_symop_operation_xyz
x,y,z
1/2-y,x,1/2+z
1/2-x,1/2-y,z
y,1/2-x,1/2+z
x,1/2-y,1/2-z
1/2-x,y,1/2-z
y,x,-z
1/2-y,1/2-x,-z
-x,-y,-z
1/2+y,-x,1/2-z
1/2+x,1/2+y,-z
-y,1/2+x,1/2-z
-x,1/2+y,1/2+z
1/2+x,-y,1/2+z
-y,-x,z
1/2+y,1/2+x,z
loop_
_atom_site_type_symbol
_atom_site_label
_atom_site_fract_x
_atom_site_fract_y
_atom_site_fract_z
Si Si1 0.745064 0.085114 0.550626
Si Si2 0.558702 0.609594 0.367150
Si Si3 0.360781 0.469175 0.784512
Si Si4 0.778883 0.594890 0.439907
O O1 0.831200 0.168801 0.530817
O O2 0.645888 0.145888 0.577087
O O3 0.795675 0.012231 0.612433
O O4 0.720127 0.015873 0.478949
O O5 0.492657 0.507344 0.386485
O O6 0.588348 0.600256 0.280012
O O7 0.662335 0.616252 0.415373
O O8 0.250000 0.499088 0.750000
O O9 0.433059 0.566942 0.795575
O O10 0.342202 0.411024 0.862550
O O11 0.829349 0.670652 0.500000
#
# Coordination Sequence:
#
# PCOD9568406 Si02
#       4
#    16  16  16  16
#     4  10  21  37  60  90 121 157 202 248 296 354
#     4   9  19  39  64  87 119 162 202 243 296 360
#     4   9  19  36  58  86 119 156 199 247 302 363
#     4  11  22  36  59  91 124 158 198 247 304 359
#
# _framework density 21.039400000000001
#
# number of rings (size 3 to 8) (size 9 to 14) (size 15 to 20)
#    0.000    2.250    0.000    2.250    0.000    7.250 
#    0.000    1.250    0.000   13.500    0.000    7.000 
#    0.000    0.000    0.000    0.000    0.000    0.250 
#
# Total GULP energy -357847.318313 kJ/mol
# GULP energy per Si atom -5591.364349 kJ/mol
# Density = 2.099151 g / cm^3
# Si number density = 21.039400 Si / 1000 Ang^3
#
#
#
# Elastic Constant Matrix: (Units=GPa)
#
#
# Indices 1 2 3 4 5 6 
#
# 1 94.2647 115.7587 86.1506 0.0000 0.0000 0.0000
# 2 115.7587 94.2704 86.1503 0.0000 0.0000 0.0000
# 3 86.1506 86.1503 163.5211 0.0000 0.0000 0.0000
# 4 0.0000 0.0000 0.0000 27.0754 0.0000 0.0000
# 5 0.0000 0.0000 0.0000 0.0000 27.0757 0.0000
# 6 0.0000 0.0000 0.0000 0.0000 0.0000 30.5039
#
#
#
# Elastic Compliance Matrix: (Units=1/GPa)
#
#
# Indices 1 2 3 4 5 6 
#
# 1 -0.019074 0.027458 -0.004417 0.000000 0.000000 0.000000
# 2 0.027458 -0.019071 -0.004419 0.000000 0.000000 0.000000
# 3 -0.004417 -0.004419 0.010771 0.000000 0.000000 0.000000
# 4 0.000000 0.000000 0.000000 0.036934 0.000000 0.000000
# 5 0.000000 0.000000 0.000000 0.000000 0.036933 0.000000
# 6 0.000000 0.000000 0.000000 0.000000 0.000000 0.032783
#
#
# Mechanical properties :
#
#
# Convention : Reuss Voigt Hill
#
# Bulk Modulus (GPa) = 101.31584 103.13059 102.22321
# Shear Modulus (GPa) = 110.32370 21.19743 65.76057
#
# Velocity S-wave (km/s) = 7.24918 3.17757 5.59676
# Velocity P-wave (km/s) = 10.87783 7.91119 9.51089
#
# Compressibility (1/GPa) = 0.00987013
#
# Stress axis : x y z
#
# Youngs Moduli (GPa) = -52.42824 -52.43462 92.84507
#
# Poissons Ratio (x) = 1.43976 0.41013
# Poissons Ratio (y) = 1.43959 0.41025
# Poissons Ratio (z) = -0.23159 -0.23169
#
# Static dielectric constant tensor:
#      x y z
#    x 1.759080 0.000000 0.000000 
#    y 0.000000 1.759080 0.000000 
#    z 0.000000 0.000000 1.757630 
# 
# From -- ./inp_files/6125.got.cif
#   From: 2010.05.17/outbox.cif.g08.bks.cpg/sg134_4_cif.got.tgz:6125.got - 2010.05.20 12:42:49.
