data_PCOD9568301
_publ_section_title
;
Structure prediction by ZEFSAII (Michael W. Deem and Ramdas Pophale) SiO2 
 PCOD9568301
Probable space group: P 42/N N M
;
_chemical_formula_sum "Si O2"
_cell_formula_units_Z 88
_cell_length_a 15.965970
_cell_length_b 15.965970
_cell_length_c 18.913943
_cell_angle_alpha 90.000000
_cell_angle_beta 90.000000
_cell_angle_gamma 90.000000
_cell_volume 4821.394784
_symmetry_space_group_name_H-M "P 42/N N M"
_symmetry_group_IT_number 134
_space_group.IT_coordinate_system_code '2'
_symmetry_cell_setting 'tetragonal'
loop_
_space_group_symop_operation_xyz
x,y,z
1/2-y,x,1/2+z
1/2-x,1/2-y,z
y,1/2-x,1/2+z
x,1/2-y,1/2-z
1/2-x,y,1/2-z
y,x,-z
1/2-y,1/2-x,-z
-x,-y,-z
1/2+y,-x,1/2-z
1/2+x,1/2+y,-z
-y,1/2+x,1/2-z
-x,1/2+y,1/2+z
1/2+x,-y,1/2+z
-y,-x,z
1/2+y,1/2+x,z
loop_
_atom_site_type_symbol
_atom_site_label
_atom_site_fract_x
_atom_site_fract_y
_atom_site_fract_z
Si Si1 0.562672 0.805509 0.962611
Si Si2 0.683546 0.316455 0.610404
Si Si3 0.189371 0.553415 0.444040
Si Si4 0.539966 0.039966 0.069214
Si Si5 0.773802 0.652100 0.328802
Si Si6 0.057594 0.942407 0.308396
Si Si7 0.331487 0.040773 0.298440
O O1 0.486176 0.863918 0.936289
O O2 0.605813 0.769710 0.892951
O O3 0.632516 0.867485 0.000000
O O4 0.523050 0.730794 0.010918
O O5 0.750000 0.250000 0.645423
O O6 0.622843 0.261621 0.562037
O O7 0.625088 0.374913 0.660525
O O8 0.103394 0.603394 0.465833
O O9 0.179800 0.523416 0.362652
O O10 0.491992 0.991992 0.131680
O O11 0.500000 0.000000 0.000000
O O12 0.750000 0.750000 0.332765
O O13 0.750000 0.622272 0.250000
O O14 0.872868 0.643318 0.334000
O O15 0.992756 0.896145 0.258267
O O16 0.250000 0.055280 0.250000
#
# Coordination Sequence:
#
# PCOD9568301 Si02
#       7
#    16   8  16   8  16   8  16
#     4  11  23  41  67  92 123 161 214 262 315 382
#     4  10  20  34  58  86 124 162 206 249 310 379
#     4  11  23  40  58  92 128 169 204 256 321 384
#     4  10  22  36  65  91 113 155 204 274 316 353
#     4  11  23  40  62  89 119 162 210 256 306 365
#     4  12  22  38  58  90 129 157 209 265 312 376
#     4  12  23  37  60  88 129 168 204 252 313 378
#
# _framework density 18.25198
#
# number of rings (size 3 to 8) (size 9 to 14) (size 15 to 20)
#    0.000    0.909    4.545    4.909    0.000    2.545 
#    3.273    0.909    0.000    0.000    0.000    0.000 
#    0.000    0.000    0.000    0.000    0.000    0.000 
#
# Total GULP energy -490731.335554 kJ/mol
# GULP energy per Si atom -5576.492449 kJ/mol
# Density = 1.821044 g / cm^3
# Si number density = 18.251980 Si / 1000 Ang^3
#
#
#
# Elastic Constant Matrix: (Units=GPa)
#
#
# Indices 1 2 3 4 5 6 
#
# 1 75.2400 26.6254 45.4361 0.0000 0.0000 0.0000
# 2 26.6254 75.2389 45.4354 0.0000 0.0000 0.0000
# 3 45.4361 45.4354 125.7042 0.0000 0.0000 0.0000
# 4 0.0000 0.0000 0.0000 34.9985 0.0000 0.0000
# 5 0.0000 0.0000 0.0000 0.0000 34.9977 0.0000
# 6 0.0000 0.0000 0.0000 0.0000 0.0000 32.5316
#
#
#
# Elastic Compliance Matrix: (Units=1/GPa)
#
#
# Indices 1 2 3 4 5 6 
#
# 1 0.017529 -0.003041 -0.005237 0.000000 0.000000 0.000000
# 2 -0.003041 0.017530 -0.005237 0.000000 0.000000 0.000000
# 3 -0.005237 -0.005237 0.011741 0.000000 0.000000 0.000000
# 4 0.000000 0.000000 0.000000 0.028573 0.000000 0.000000
# 5 0.000000 0.000000 0.000000 0.000000 0.028573 0.000000
# 6 0.000000 0.000000 0.000000 0.000000 0.000000 0.030739
#
#
# Mechanical properties :
#
#
# Convention : Reuss Voigt Hill
#
# Bulk Modulus (GPa) = 50.58017 56.79744 53.68880
# Shear Modulus (GPa) = 29.70805 31.08465 30.39635
#
# Velocity S-wave (km/s) = 4.03881 4.13132 4.08533
# Velocity P-wave (km/s) = 7.03716 7.34460 7.19252
#
# Compressibility (1/GPa) = 0.01977060
#
# Stress axis : x y z
#
# Youngs Moduli (GPa) = 57.04715 57.04667 85.17191
#
# Poissons Ratio (x) = 0.17347 0.44604
# Poissons Ratio (y) = 0.17347 0.44604
# Poissons Ratio (z) = 0.29875 0.29875
#
# Static dielectric constant tensor:
#      x y z
#    x 1.673530 0.000000 0.000000 
#    y 0.000000 1.673530 0.000000 
#    z 0.000000 0.000000 1.550910 
# 
# From -- ./inp_files/9082.got.cif
#   From: 2010.05.17/outbox.cif.g08.bks.cpg/sg134_5_cif.got.tgz:9082.got - 2010.05.20 12:42:49.
