data_PCOD9568668
_publ_section_title
;
Structure prediction by ZEFSAII (Michael W. Deem and Ramdas Pophale) SiO2 
 PCOD9568668
Probable space group: P 42/M B C
;
_chemical_formula_sum "Si O2"
_cell_formula_units_Z 112
_cell_length_a 13.038630
_cell_length_b 13.038630
_cell_length_c 28.728976
_cell_angle_alpha 90.000000
_cell_angle_beta 90.000000
_cell_angle_gamma 90.000000
_cell_volume 4884.094625
_symmetry_space_group_name_H-M "P 42/M B C"
_symmetry_group_IT_number 135
_symmetry_cell_setting 'tetragonal'
loop_
_space_group_symop_operation_xyz
x,y,z
-y,x,1/2+z
-x,-y,z
y,-x,1/2+z
1/2+x,1/2-y,-z
1/2-x,1/2+y,-z
1/2+y,1/2+x,1/2-z
1/2-y,1/2-x,1/2-z
-x,-y,-z
y,-x,1/2-z
x,y,-z
-y,x,1/2-z
1/2-x,1/2+y,z
1/2+x,1/2-y,z
1/2-y,1/2-x,1/2+z
1/2+y,1/2+x,1/2+z
loop_
_atom_site_type_symbol
_atom_site_label
_atom_site_fract_x
_atom_site_fract_y
_atom_site_fract_z
Si Si1 0.515795 0.760511 0.551504
Si Si2 0.897261 0.751840 0.144102
Si Si3 0.346535 0.446547 0.446184
Si Si4 0.337321 0.469750 0.735278
Si Si5 0.819967 0.354513 0.134457
Si Si6 0.355584 0.375580 0.890574
Si Si7 0.199503 0.452517 0.817351
O O1 0.512685 0.802370 0.500000
O O2 0.581661 0.654015 0.551654
O O3 0.577267 0.828533 0.588044
O O4 0.403876 0.729849 0.570413
O O5 0.922638 0.753182 0.089247
O O6 0.971072 0.808235 0.181102
O O7 0.796177 0.822820 0.146725
O O8 0.869125 0.639953 0.163362
O O9 0.323754 0.474930 0.500000
O O10 0.398113 0.539062 0.417219
O O11 0.384795 0.576539 0.753049
O O12 0.236674 0.443109 0.764858
O O13 0.862708 0.242671 0.124012
O O14 0.850664 0.436369 0.173618
O O15 0.307366 0.440381 0.847622
#
# Coordination Sequence:
#
# PCOD9568668 Si02
#       7
#    16  16  16  16  16  16  16
#     4   9  18  31  50  79 113 148 190 245 306 358
#     4  10  20  37  58  82 120 157 195 247 302 368
#     4  10  20  35  56  84 114 151 201 257 311 363
#     4  11  21  34  60  95 122 149 190 246 309 374
#     4   9  19  35  52  79 113 153 197 237 290 368
#     4  10  19  32  55  79 111 151 194 247 299 353
#     4  10  20  37  56  83 119 159 194 238 302 368
#
# _framework density 22.931581000000001
#
# number of rings (size 3 to 8) (size 9 to 14) (size 15 to 20)
#    0.000    2.143    1.429    2.143    0.000    2.286 
#    0.000   10.000    0.000    0.857    0.000    2.000 
#    0.000    0.000    0.000    0.000    0.000    0.000 
#
# Total GULP energy -624201.712942 kJ/mol
# GULP energy per Si atom -5573.229580 kJ/mol
# Density = 2.287939 g / cm^3
# Si number density = 22.931581 Si / 1000 Ang^3
#
#
#
# Elastic Constant Matrix: (Units=GPa)
#
#
# Indices 1 2 3 4 5 6 
#
# 1 80.5454 19.6695 28.2401 0.0000 0.0000 0.0000
# 2 19.6695 80.5454 28.2401 0.0000 0.0000 0.0000
# 3 28.2401 28.2401 137.8496 0.0000 0.0000 0.0000
# 4 0.0000 0.0000 0.0000 17.6989 0.0000 0.0000
# 5 0.0000 0.0000 0.0000 0.0000 17.6989 0.0000
# 6 0.0000 0.0000 0.0000 0.0000 0.0000 13.9925
#
#
#
# Elastic Compliance Matrix: (Units=1/GPa)
#
#
# Indices 1 2 3 4 5 6 
#
# 1 0.013854 -0.002573 -0.002311 0.000000 0.000000 0.000000
# 2 -0.002573 0.013854 -0.002311 0.000000 0.000000 0.000000
# 3 -0.002311 -0.002311 0.008201 0.000000 0.000000 0.000000
# 4 0.000000 0.000000 0.000000 0.056501 0.000000 0.000000
# 5 0.000000 0.000000 0.000000 0.000000 0.056501 0.000000
# 6 0.000000 0.000000 0.000000 0.000000 0.000000 0.071467
#
#
# Mechanical properties :
#
#
# Convention : Reuss Voigt Hill
#
# Bulk Modulus (GPa) = 46.47042 50.13773 48.30407
# Shear Modulus (GPa) = 20.66626 24.73078 22.69852
#
# Velocity S-wave (km/s) = 3.00528 3.28755 3.14958
# Velocity P-wave (km/s) = 5.68780 6.02679 5.85975
#
# Compressibility (1/GPa) = 0.02151907
#
# Stress axis : x y z
#
# Youngs Moduli (GPa) = 72.18153 72.18153 121.93376
#
# Poissons Ratio (x) = 0.18572 0.28180
# Poissons Ratio (y) = 0.18572 0.28180
# Poissons Ratio (z) = 0.16682 0.16682
#
# Static dielectric constant tensor:
#      x y z
#    x 1.931260 0.000000 0.000000 
#    y 0.000000 1.931260 0.000000 
#    z 0.000000 0.000000 1.863590 
# 
# From -- ./inp_files/6482.got.cif
#   From: 2010.05.17/outbox.cif.g08.bks.cpg/sg135_4_cif.got.tgz:6482.got - 2010.05.20 12:50:20.
