data_PCOD9568314
_publ_section_title
;
Structure prediction by ZEFSAII (Michael W. Deem and Ramdas Pophale) SiO2 
 PCOD9568314
Probable space group: P 42/N N M
;
_chemical_formula_sum "Si O2"
_cell_formula_units_Z 112
_cell_length_a 13.759448
_cell_length_b 13.759448
_cell_length_c 34.252330
_cell_angle_alpha 90.000000
_cell_angle_beta 90.000000
_cell_angle_gamma 90.000000
_cell_volume 6484.733639
_symmetry_space_group_name_H-M "P 42/N N M"
_symmetry_group_IT_number 134
_space_group.IT_coordinate_system_code '2'
_symmetry_cell_setting 'tetragonal'
loop_
_space_group_symop_operation_xyz
x,y,z
1/2-y,x,1/2+z
1/2-x,1/2-y,z
y,1/2-x,1/2+z
x,1/2-y,1/2-z
1/2-x,y,1/2-z
y,x,-z
1/2-y,1/2-x,-z
-x,-y,-z
1/2+y,-x,1/2-z
1/2+x,1/2+y,-z
-y,1/2+x,1/2-z
-x,1/2+y,1/2+z
1/2+x,-y,1/2+z
-y,-x,z
1/2+y,1/2+x,z
loop_
_atom_site_type_symbol
_atom_site_label
_atom_site_fract_x
_atom_site_fract_y
_atom_site_fract_z
Si Si1 0.996956 0.839330 0.779658
Si Si2 0.017936 0.354456 0.765546
Si Si3 0.289945 0.097924 0.151373
Si Si4 0.530649 0.864976 0.557875
Si Si5 0.780431 0.907126 0.139867
Si Si6 0.748633 0.409476 0.899879
Si Si7 0.180191 0.985053 0.023603
O O1 0.009241 0.750000 0.750000
O O2 0.907203 0.905743 0.763631
O O3 0.974987 0.797678 0.822653
O O4 0.089920 0.910081 0.780073
O O5 0.983333 0.250000 0.750000
O O6 0.071322 0.328537 0.805821
O O7 0.929553 0.429553 0.771308
O O8 0.189502 0.157543 0.150190
O O9 0.371453 0.170048 0.134368
O O10 0.267923 0.000322 0.127661
O O11 0.548011 0.817751 0.599546
O O12 0.508237 0.794242 0.521130
O O13 0.444554 0.944554 0.561163
O O14 0.626692 0.923745 0.544036
O O15 0.643177 0.356824 0.894424
O O16 0.828293 0.328293 0.891976
O O17 0.754672 0.444046 0.944916
O O18 0.096460 0.903541 0.020210
#
# Coordination Sequence:
#
# PCOD9568314 Si02
#       7
#    16  16  16  16  16  16  16
#     4  11  23  40  63  86 109 147 194 242 289 337
#     4  11  23  39  59  82 114 154 190 232 284 340
#     4  11  22  35  54  81 118 151 189 230 279 337
#     4   9  16  30  54  82 112 142 183 244 291 324
#     4  11  21  34  58  85 113 151 189 235 288 340
#     4  10  20  35  57  82 113 154 192 227 273 340
#     4   8  15  29  52  80 111 147 185 231 284 331
#
# _framework density 17.271335000000001
#
# number of rings (size 3 to 8) (size 9 to 14) (size 15 to 20)
#    0.000    1.857    4.286    1.714    0.000    1.714 
#    0.000    0.714    0.000    3.429    0.000    2.000 
#    0.000    0.000    0.000    0.000    0.000    0.000 
#
# Total GULP energy -624151.457590 kJ/mol
# GULP energy per Si atom -5572.780871 kJ/mol
# Density = 1.723202 g / cm^3
# Si number density = 17.271335 Si / 1000 Ang^3
#
#
#
# Elastic Constant Matrix: (Units=GPa)
#
#
# Indices 1 2 3 4 5 6 
#
# 1 62.3131 19.6384 26.5994 0.0000 0.0000 0.0000
# 2 19.6384 62.3131 26.5994 0.0000 0.0000 0.0000
# 3 26.5994 26.5994 123.6622 0.0000 0.0000 0.0000
# 4 0.0000 0.0000 0.0000 10.1854 0.0000 0.0000
# 5 0.0000 0.0000 0.0000 0.0000 10.1854 0.0000
# 6 0.0000 0.0000 0.0000 0.0000 0.0000 15.3888
#
#
#
# Elastic Compliance Matrix: (Units=1/GPa)
#
#
# Indices 1 2 3 4 5 6 
#
# 1 0.018808 -0.004625 -0.003051 0.000000 0.000000 0.000000
# 2 -0.004625 0.018808 -0.003051 0.000000 0.000000 0.000000
# 3 -0.003051 -0.003051 0.009399 0.000000 0.000000 0.000000
# 4 0.000000 0.000000 0.000000 0.098180 0.000000 0.000000
# 5 0.000000 0.000000 0.000000 0.000000 0.098180 0.000000
# 6 0.000000 0.000000 0.000000 0.000000 0.000000 0.064982
#
#
# Mechanical properties :
#
#
# Convention : Reuss Voigt Hill
#
# Bulk Modulus (GPa) = 39.12113 43.77367 41.44740
# Shear Modulus (GPa) = 14.77844 18.84865 16.81354
#
# Velocity S-wave (km/s) = 2.92834 3.30711 3.12347
# Velocity P-wave (km/s) = 5.84240 6.32316 6.08753
#
# Compressibility (1/GPa) = 0.02556163
#
# Stress axis : x y z
#
# Youngs Moduli (GPa) = 53.16922 53.16922 106.39513
#
# Poissons Ratio (x) = 0.24592 0.32458
# Poissons Ratio (y) = 0.24592 0.32458
# Poissons Ratio (z) = 0.16220 0.16220
#
# Static dielectric constant tensor:
#      x y z
#    x 1.582690 0.000000 0.000000 
#    y 0.000000 1.582690 0.000000 
#    z 0.000000 0.000000 1.594590 
# 
# From -- ./inp_files/11695.got.cif
#   From: 2010.05.17/outbox.cif.g08.bks.cpg/sg134_6_cif.got.tgz:11695.got - 2010.05.20 12:42:49.
