data_PCOD9568419
_publ_section_title
;
Structure prediction by ZEFSAII (Michael W. Deem and Ramdas Pophale) SiO2 
 PCOD9568419
Probable space group: P 42/N N M
;
_chemical_formula_sum "Si O2"
_cell_formula_units_Z 108
_cell_length_a 14.116503
_cell_length_b 14.116503
_cell_length_c 26.893774
_cell_angle_alpha 90.000000
_cell_angle_beta 90.000000
_cell_angle_gamma 90.000000
_cell_volume 5359.274482
_symmetry_space_group_name_H-M "P 42/N N M"
_symmetry_group_IT_number 134
_space_group.IT_coordinate_system_code '2'
_symmetry_cell_setting 'tetragonal'
loop_
_space_group_symop_operation_xyz
x,y,z
1/2-y,x,1/2+z
1/2-x,1/2-y,z
y,1/2-x,1/2+z
x,1/2-y,1/2-z
1/2-x,y,1/2-z
y,x,-z
1/2-y,1/2-x,-z
-x,-y,-z
1/2+y,-x,1/2-z
1/2+x,1/2+y,-z
-y,1/2+x,1/2-z
-x,1/2+y,1/2+z
1/2+x,-y,1/2+z
-y,-x,z
1/2+y,1/2+x,z
loop_
_atom_site_type_symbol
_atom_site_label
_atom_site_fract_x
_atom_site_fract_y
_atom_site_fract_z
Si Si1 0.105798 0.051496 0.148708
Si Si2 0.750000 0.750000 0.500000
Si Si3 0.548217 0.301582 0.107137
Si Si4 0.924849 0.722039 0.073215
Si Si5 0.747913 0.096038 0.502248
Si Si6 0.103084 0.750000 0.250000
Si Si7 0.106481 0.047887 0.262368
Si Si8 0.043212 0.113815 0.359660
O O1 0.198068 0.056456 0.114685
O O2 0.130537 0.075997 0.206110
O O3 0.031980 0.127535 0.126900
O O4 0.049296 0.950705 0.147629
O O5 0.749338 0.841479 0.535499
O O6 0.648894 0.351107 0.118518
O O7 0.526628 0.200498 0.130585
O O8 0.545186 0.288589 0.047637
O O9 0.893797 0.624743 0.099309
O O10 0.020799 0.714906 0.041510
O O11 0.831615 0.168386 0.487850
O O12 0.661262 0.161262 0.521735
O O13 0.174416 0.825585 0.224413
O O14 0.031321 0.683062 0.220111
O O15 0.092482 0.122772 0.305623
O O16 0.007055 0.992946 0.256637
O O17 0.982539 0.017462 0.360620
#
# Coordination Sequence:
#
# PCOD9568419 Si02
#       8
#    16   4  16  16  16   8  16  16
#     4  10  21  38  61  87 118 159 201 242 289 348
#     4  12  28  40  52  82 116 148 196 256 296 338
#     4  10  22  40  61  84 111 151 203 253 303 354
#     4  12  22  38  59  84 121 157 194 236 292 358
#     4  10  21  38  61  89 119 151 193 247 301 358
#     4   9  16  30  54  81 114 162 206 235 280 345
#     4   9  19  35  54  84 122 152 191 243 285 338
#     4  11  23  38  60  89 120 156 195 242 300 357
#
# _framework density 20.151980999999999
#
# number of rings (size 3 to 8) (size 9 to 14) (size 15 to 20)
#    0.000    1.704    0.000    4.889    0.000    1.481 
#    0.000    6.667    0.000    9.778    0.000    8.296 
#    0.000    0.000    0.000    0.000    0.000    0.000 
#
# Total GULP energy -602591.419179 kJ/mol
# GULP energy per Si atom -5579.550178 kJ/mol
# Density = 2.010611 g / cm^3
# Si number density = 20.151981 Si / 1000 Ang^3
#
#
#
# Elastic Constant Matrix: (Units=GPa)
#
#
# Indices 1 2 3 4 5 6 
#
# 1 69.6285 47.6834 54.1026 0.0000 0.0000 0.0000
# 2 47.6834 69.6285 54.1026 0.0000 0.0000 0.0000
# 3 54.1026 54.1026 119.8795 0.0000 0.0000 0.0000
# 4 0.0000 0.0000 0.0000 40.3500 0.0000 0.0000
# 5 0.0000 0.0000 0.0000 0.0000 40.3500 0.0000
# 6 0.0000 0.0000 0.0000 0.0000 0.0000 38.8279
#
#
#
# Elastic Compliance Matrix: (Units=1/GPa)
#
#
# Indices 1 2 3 4 5 6 
#
# 1 0.030086 -0.015482 -0.006591 0.000000 0.000000 0.000000
# 2 -0.015482 0.030086 -0.006591 0.000000 0.000000 0.000000
# 3 -0.006591 -0.006591 0.014290 0.000000 0.000000 0.000000
# 4 0.000000 0.000000 0.000000 0.024783 0.000000 0.000000
# 5 0.000000 0.000000 0.000000 0.000000 0.024783 0.000000
# 6 0.000000 0.000000 0.000000 0.000000 0.000000 0.025755
#
#
# Mechanical properties :
#
#
# Convention : Reuss Voigt Hill
#
# Bulk Modulus (GPa) = 58.36115 63.43486 60.89801
# Shear Modulus (GPa) = 23.49387 30.78877 27.14132
#
# Velocity S-wave (km/s) = 3.41814 3.91299 3.67390
# Velocity P-wave (km/s) = 6.67844 7.20846 6.94850
#
# Compressibility (1/GPa) = 0.01713469
#
# Stress axis : x y z
#
# Youngs Moduli (GPa) = 33.23841 33.23841 69.97672
#
# Poissons Ratio (x) = 0.51461 0.46119
# Poissons Ratio (y) = 0.51461 0.46119
# Poissons Ratio (z) = 0.21906 0.21906
#
# Static dielectric constant tensor:
#      x y z
#    x 1.718930 0.000000 0.000000 
#    y 0.000000 1.718930 0.000000 
#    z 0.000000 0.000000 1.715970 
# 
# From -- ./inp_files/10177.got.cif
#   From: 2010.05.17/outbox.cif.g08.bks.cpg/sg134_6_cif.got.tgz:10177.got - 2010.05.20 12:42:49.
