data_PCOD9568429
_publ_section_title
;
Structure prediction by ZEFSAII (Michael W. Deem and Ramdas Pophale) SiO2 
 PCOD9568429
Probable space group: P 42/N N M
;
_chemical_formula_sum "Si O2"
_cell_formula_units_Z 112
_cell_length_a 31.125281
_cell_length_b 31.125281
_cell_length_c 5.622794
_cell_angle_alpha 90.000000
_cell_angle_beta 90.000000
_cell_angle_gamma 90.000000
_cell_volume 5447.267899
_symmetry_space_group_name_H-M "P 42/N N M"
_symmetry_group_IT_number 134
_space_group.IT_coordinate_system_code '2'
_symmetry_cell_setting 'tetragonal'
loop_
_space_group_symop_operation_xyz
x,y,z
1/2-y,x,1/2+z
1/2-x,1/2-y,z
y,1/2-x,1/2+z
x,1/2-y,1/2-z
1/2-x,y,1/2-z
y,x,-z
1/2-y,1/2-x,-z
-x,-y,-z
1/2+y,-x,1/2-z
1/2+x,1/2+y,-z
-y,1/2+x,1/2-z
-x,1/2+y,1/2+z
1/2+x,-y,1/2+z
-y,-x,z
1/2+y,1/2+x,z
loop_
_atom_site_type_symbol
_atom_site_label
_atom_site_fract_x
_atom_site_fract_y
_atom_site_fract_z
Si Si1 0.938746 0.792493 0.405297
Si Si2 0.585041 0.347288 0.026951
Si Si3 0.495526 0.837678 0.807376
Si Si4 0.345387 0.775180 0.499755
Si Si5 0.345409 0.225561 0.010582
Si Si6 0.374111 0.441927 0.079488
Si Si7 0.594741 0.474838 0.688199
O O1 0.943290 0.750000 0.250000
O O2 0.895535 0.785023 0.553184
O O3 0.930341 0.836884 0.264605
O O4 0.984033 0.801411 0.529716
O O5 0.615435 0.384566 0.140833
O O6 0.549130 0.325792 0.189965
O O7 0.617238 0.310217 0.950059
O O8 0.556956 0.372304 0.828263
O O9 0.533724 0.848912 0.628346
O O10 0.484736 0.882088 0.941348
O O11 0.354270 0.750000 0.750000
O O12 0.301851 0.801851 0.542391
O O13 0.341179 0.750000 0.250000
O O14 0.330190 0.250000 0.250000
O O15 0.342342 0.250000 0.750000
O O16 0.317064 0.182937 0.000000
O O17 0.405432 0.479144 0.182317
O O18 0.401412 0.401412 0.000000
O O19 0.549994 0.450007 0.671158
#
# Coordination Sequence:
#
# PCOD9568429 Si02
#       7
#    16  16  16  16  16  16  16
#     4  10  25  41  60  91 130 171 217 268 326 395
#     4   9  20  40  63  90 125 166 217 272 327 393
#     4  10  21  39  63  90 123 169 213 266 331 392
#     4  11  25  44  67  98 133 175 224 277 337 401
#     4  11  26  45  72 103 134 175 221 272 337 397
#     4  10  23  40  62  92 125 169 219 271 330 399
#     4   9  19  38  61  91 127 167 216 272 334 396
#
# _framework density 20.560765
#
# number of rings (size 3 to 8) (size 9 to 14) (size 15 to 20)
#    0.000    2.000    0.000    1.286    8.000    4.286 
#    7.714    0.714    0.000    0.000    0.000    0.000 
#    0.000    0.000    0.000    0.000    0.000    0.000 
#
# Total GULP energy -624453.985332 kJ/mol
# GULP energy per Si atom -5575.482012 kJ/mol
# Density = 2.051397 g / cm^3
# Si number density = 20.560765 Si / 1000 Ang^3
#
#
#
# Elastic Constant Matrix: (Units=GPa)
#
#
# Indices 1 2 3 4 5 6 
#
# 1 54.8160 58.3399 15.0707 0.0000 0.0000 0.0000
# 2 58.3399 54.8281 15.0747 0.0000 0.0000 0.0000
# 3 15.0707 15.0747 55.4478 0.0000 0.0000 0.0000
# 4 0.0000 0.0000 0.0000 -174.3341 0.0000 0.0000
# 5 0.0000 0.0000 0.0000 0.0000 -174.7382 0.0000
# 6 0.0000 0.0000 0.0000 0.0000 0.0000 49.1827
#
#
#
# Elastic Compliance Matrix: (Units=1/GPa)
#
#
# Indices 1 2 3 4 5 6 
#
# 1 -0.137381 0.146894 -0.002596 0.000000 0.000000 0.000000
# 2 0.146894 -0.137354 -0.002583 0.000000 0.000000 0.000000
# 3 -0.002596 -0.002583 0.019443 0.000000 0.000000 0.000000
# 4 0.000000 0.000000 0.000000 -0.005736 0.000000 0.000000
# 5 0.000000 0.000000 0.000000 0.000000 -0.005723 0.000000
# 6 0.000000 0.000000 0.000000 0.000000 0.000000 0.020332
#
#
# Mechanical properties :
#
#
# Convention : Reuss Voigt Hill
#
# Bulk Modulus (GPa) = 35.53964 38.00696 36.77330
# Shear Modulus (GPa) = -9.60670 -54.87082 -32.23876
#
# Velocity S-wave (km/s) = -2.16391 -5.17156 -3.96406
# Velocity P-wave (km/s) = 3.32857 4.13942 1.74003
#
# Compressibility (1/GPa) = 0.02813760
#
# Stress axis : x y z
#
# Youngs Moduli (GPa) = -7.27901 -7.28045 51.43253
#
# Poissons Ratio (x) = 1.06946 0.13353
# Poissons Ratio (y) = 1.06925 0.13286
# Poissons Ratio (z) = -0.01890 -0.01881
#
# Static dielectric constant tensor:
#      x y z
#    x 1.646690 0.000000 0.000000 
#    y 0.000000 1.646640 0.000000 
#    z 0.000000 0.000000 1.754810 
# 
# From -- ./inp_files/1353.got.cif
#   From: 2010.05.17/outbox.cif.g08.bks.cpg/sg134_1_cif.got.tgz:1353.got - 2010.05.20 12:42:49.
