data_PCOD9568138
_publ_section_title
;
Structure prediction by ZEFSAII (Michael W. Deem and Ramdas Pophale) SiO2 
 PCOD9568138
Probable space group: P 42/N N M
;
_chemical_formula_sum "Si O2"
_cell_formula_units_Z 116
_cell_length_a 18.005040
_cell_length_b 18.005040
_cell_length_c 18.711926
_cell_angle_alpha 90.000000
_cell_angle_beta 90.000000
_cell_angle_gamma 90.000000
_cell_volume 6066.059591
_symmetry_space_group_name_H-M "P 42/N N M"
_symmetry_group_IT_number 134
_space_group.IT_coordinate_system_code '2'
_symmetry_cell_setting 'tetragonal'
loop_
_space_group_symop_operation_xyz
x,y,z
1/2-y,x,1/2+z
1/2-x,1/2-y,z
y,1/2-x,1/2+z
x,1/2-y,1/2-z
1/2-x,y,1/2-z
y,x,-z
1/2-y,1/2-x,-z
-x,-y,-z
1/2+y,-x,1/2-z
1/2+x,1/2+y,-z
-y,1/2+x,1/2-z
-x,1/2+y,1/2+z
1/2+x,-y,1/2+z
-y,-x,z
1/2+y,1/2+x,z
loop_
_atom_site_type_symbol
_atom_site_label
_atom_site_fract_x
_atom_site_fract_y
_atom_site_fract_z
Si Si1 0.068589 0.739728 0.063696
Si Si2 0.386118 0.998861 0.962390
Si Si3 0.873133 0.246077 0.327735
Si Si4 0.251877 0.061964 0.165038
Si Si5 0.344046 0.366667 0.915336
Si Si6 0.463074 0.839436 0.563497
Si Si7 0.643454 0.823386 0.916395
Si Si8 0.750000 0.250000 0.929001
O O1 0.157095 0.748627 0.069294
O O2 0.022068 0.737914 0.136864
O O3 0.037769 0.808586 0.016847
O O4 0.041822 0.666638 0.019735
O O5 0.337740 0.054939 0.915453
O O6 0.436757 0.936757 0.925473
O O7 0.444223 0.055778 0.000000
O O8 0.910454 0.250000 0.250000
O O9 0.831622 0.168379 0.340807
O O10 0.806845 0.306845 0.322901
O O11 0.924006 0.274234 0.390873
O O12 0.250000 0.066155 0.250000
O O13 0.177731 0.096520 0.130429
O O14 0.315222 0.114681 0.129975
O O15 0.352917 0.454711 0.909123
O O16 0.260821 0.342727 0.893289
O O17 0.350126 0.350126 0.000000
O O18 0.411458 0.911458 0.569485
O O19 0.668153 0.831848 0.000000
#
# Coordination Sequence:
#
# PCOD9568138 Si02
#       8
#    16  16  16  16  16  16  16   4
#     4  12  22  42  66 103 139 177 229 295 332 411
#     4  10  18  33  65 101 134 165 221 287 346 390
#     4   8  16  32  55  85 125 171 209 257 331 395
#     4  12  27  47  69  97 136 181 228 290 354 405
#     4  12  22  40  67  99 130 173 221 277 336 416
#     4  11  22  36  63  96 131 177 226 277 332 402
#     4  11  19  38  70 102 127 167 224 274 345 421
#     4  12  28  40  75 110 141 172 256 288 330 396
#
# _framework density 19.122792
#
# number of rings (size 3 to 8) (size 9 to 14) (size 15 to 20)
#    0.000    1.103    8.276    0.828    0.966    1.379 
#    3.724    1.034    0.000    0.000    0.000    0.000 
#    0.000    0.000    0.000    0.000    0.000    0.000 
#
# Total GULP energy -646364.360574 kJ/mol
# GULP energy per Si atom -5572.106557 kJ/mol
# Density = 1.907927 g / cm^3
# Si number density = 19.122792 Si / 1000 Ang^3
#
#
#
# Elastic Constant Matrix: (Units=GPa)
#
#
# Indices 1 2 3 4 5 6 
#
# 1 132.2165 44.4279 34.8852 0.0000 0.0000 0.0000
# 2 44.4279 132.2174 34.8854 0.0000 0.0000 0.0000
# 3 34.8852 34.8854 104.0328 0.0000 0.0000 0.0000
# 4 0.0000 0.0000 0.0000 11.4926 0.0000 0.0000
# 5 0.0000 0.0000 0.0000 0.0000 11.4927 0.0000
# 6 0.0000 0.0000 0.0000 0.0000 0.0000 35.1974
#
#
#
# Elastic Compliance Matrix: (Units=1/GPa)
#
#
# Indices 1 2 3 4 5 6 
#
# 1 0.008958 -0.002433 -0.002188 0.000000 0.000000 0.000000
# 2 -0.002433 0.008958 -0.002188 0.000000 0.000000 0.000000
# 3 -0.002188 -0.002188 0.011080 0.000000 0.000000 0.000000
# 4 0.000000 0.000000 0.000000 0.087012 0.000000 0.000000
# 5 0.000000 0.000000 0.000000 0.000000 0.087012 0.000000
# 6 0.000000 0.000000 0.000000 0.000000 0.000000 0.028411
#
#
# Mechanical properties :
#
#
# Convention : Reuss Voigt Hill
#
# Bulk Modulus (GPa) = 65.02810 66.31819 65.67315
# Shear Modulus (GPa) = 19.98595 28.58774 24.28684
#
# Velocity S-wave (km/s) = 3.23637 3.87066 3.56764
# Velocity P-wave (km/s) = 6.93143 7.39807 7.16855
#
# Compressibility (1/GPa) = 0.01537797
#
# Stress axis : x y z
#
# Youngs Moduli (GPa) = 111.62995 111.63064 90.25391
#
# Poissons Ratio (x) = 0.27158 0.19749
# Poissons Ratio (y) = 0.27157 0.19749
# Poissons Ratio (z) = 0.24426 0.24426
#
# Static dielectric constant tensor:
#      x y z
#    x 1.691160 0.000000 0.000000 
#    y 0.000000 1.691160 0.000000 
#    z 0.000000 0.000000 1.670420 
# 
# From -- ./inp_files/8048.got.cif
#   From: 2010.05.17/outbox.cif.g08.bks.cpg/sg134_5_cif.got.tgz:8048.got - 2010.05.20 12:42:49.
