data_PCOD9568287
_publ_section_title
;
Structure prediction by ZEFSAII (Michael W. Deem and Ramdas Pophale) SiO2 
 PCOD9568287
Probable space group: P 42/N N M
;
_chemical_formula_sum "Si O2"
_cell_formula_units_Z 104
_cell_length_a 32.479210
_cell_length_b 32.479210
_cell_length_c 5.434199
_cell_angle_alpha 90.000000
_cell_angle_beta 90.000000
_cell_angle_gamma 90.000000
_cell_volume 5732.531538
_symmetry_space_group_name_H-M "P 42/N N M"
_symmetry_group_IT_number 134
_space_group.IT_coordinate_system_code '2'
_symmetry_cell_setting 'tetragonal'
loop_
_space_group_symop_operation_xyz
x,y,z
1/2-y,x,1/2+z
1/2-x,1/2-y,z
y,1/2-x,1/2+z
x,1/2-y,1/2-z
1/2-x,y,1/2-z
y,x,-z
1/2-y,1/2-x,-z
-x,-y,-z
1/2+y,-x,1/2-z
1/2+x,1/2+y,-z
-y,1/2+x,1/2-z
-x,1/2+y,1/2+z
1/2+x,-y,1/2+z
-y,-x,z
1/2+y,1/2+x,z
loop_
_atom_site_type_symbol
_atom_site_label
_atom_site_fract_x
_atom_site_fract_y
_atom_site_fract_z
Si Si1 0.690938 0.572497 0.454782
Si Si2 0.011317 0.250000 0.750000
Si Si3 0.273148 0.339192 0.510104
Si Si4 0.002494 0.438961 0.749495
Si Si5 0.884071 0.928673 0.792241
Si Si6 0.507266 0.674519 0.952165
Si Si7 0.900854 0.035459 0.251174
O O1 0.718432 0.541130 0.611334
O O2 0.716674 0.613653 0.440004
O O3 0.646082 0.583665 0.569459
O O4 0.686294 0.547406 0.205921
O O5 0.989459 0.283370 0.570440
O O6 0.250000 0.334946 0.250000
O O7 0.315613 0.315613 0.500000
O O8 0.250000 0.322139 0.750000
O O9 0.985550 0.485550 0.766531
O O10 0.985065 0.423219 0.486043
O O11 0.050829 0.428493 0.757943
O O12 0.983335 0.415467 0.987613
O O13 0.893976 0.893976 0.000000
O O14 0.858224 0.969728 0.871102
O O15 0.475120 0.647236 0.794881
O O16 0.917571 0.082430 0.251679
#
# Coordination Sequence:
#
# PCOD9568287 Si02
#       7
#    16   8  16  16  16  16  16
#     4  11  22  39  55  80 108 136 168 217 270 332
#     4  10  20  36  56  76 107 134 178 215 274 324
#     4  12  28  47  69  87 106 130 161 206 268 341
#     4   9  17  33  50  71 103 142 181 219 259 304
#     4  10  22  33  50  76 105 138 178 218 267 320
#     4  10  20  34  54  75 105 141 176 222 268 317
#     4   9  17  32  53  75 104 142 182 220 263 312
#
# _framework density 18.142073
#
# number of rings (size 3 to 8) (size 9 to 14) (size 15 to 20)
#    0.000    1.846    2.308    1.846    4.308    1.231 
#    0.000    0.000    0.000    4.615    0.000    0.000 
#    0.000    0.000    0.000    0.000    0.000    0.385 
#
# Total GULP energy -579095.775921 kJ/mol
# GULP energy per Si atom -5568.228615 kJ/mol
# Density = 1.810078 g / cm^3
# Si number density = 18.142073 Si / 1000 Ang^3
#
#
#
# Elastic Constant Matrix: (Units=GPa)
#
#
# Indices 1 2 3 4 5 6 
#
# 1 25.8235 22.1216 24.9592 0.0000 0.0000 0.0000
# 2 22.1216 25.8235 24.9592 0.0000 0.0000 0.0000
# 3 24.9592 24.9592 100.6046 0.0000 0.0000 0.0000
# 4 0.0000 0.0000 0.0000 -186.4814 0.0000 0.0000
# 5 0.0000 0.0000 0.0000 0.0000 -186.4814 0.0000
# 6 0.0000 0.0000 0.0000 0.0000 0.0000 -13.1079
#
#
#
# Elastic Compliance Matrix: (Units=1/GPa)
#
#
# Indices 1 2 3 4 5 6 
#
# 1 0.149127 -0.121007 -0.006977 0.000000 0.000000 0.000000
# 2 -0.121007 0.149127 -0.006977 0.000000 0.000000 0.000000
# 3 -0.006977 -0.006977 0.013402 0.000000 0.000000 0.000000
# 4 0.000000 0.000000 0.000000 -0.005362 0.000000 0.000000
# 5 0.000000 0.000000 0.000000 0.000000 -0.005362 0.000000
# 6 0.000000 0.000000 0.000000 0.000000 0.000000 -0.076290
#
#
# Mechanical properties :
#
#
# Convention : Reuss Voigt Hill
#
# Bulk Modulus (GPa) = 23.95951 32.92572 28.44261
# Shear Modulus (GPa) = 9.83335 -71.86672 -31.01668
#
# Velocity S-wave (km/s) = 2.33066 -6.30074 -4.13928
# Velocity P-wave (km/s) = 4.52525 5.89442 2.67079
#
# Compressibility (1/GPa) = 0.04173708
#
# Stress axis : x y z
#
# Youngs Moduli (GPa) = 6.70567 6.70567 74.61828
#
# Poissons Ratio (x) = 0.81143 0.52058
# Poissons Ratio (y) = 0.81143 0.52058
# Poissons Ratio (z) = 0.04678 0.04678
#
# Static dielectric constant tensor:
#      x y z
#    x 3.196770 0.000000 0.000000 
#    y 0.000000 3.196770 0.000000 
#    z 0.000000 0.000000 1.860980 
# 
# From -- ./inp_files/1348.got.cif
#   From: 2010.05.17/outbox.cif.g08.bks.cpg/sg134_1_cif.got.tgz:1348.got - 2010.05.20 12:42:49.
