data_PCOD9568186
_publ_section_title
;
Structure prediction by ZEFSAII (Michael W. Deem and Ramdas Pophale) SiO2 
 PCOD9568186
Probable space group: P 42/N N M
;
_chemical_formula_sum "Si O2"
_cell_formula_units_Z 80
_cell_length_a 13.860230
_cell_length_b 13.860230
_cell_length_c 22.070452
_cell_angle_alpha 90.000000
_cell_angle_beta 90.000000
_cell_angle_gamma 90.000000
_cell_volume 4239.865715
_symmetry_space_group_name_H-M "P 42/N N M"
_symmetry_group_IT_number 134
_space_group.IT_coordinate_system_code '2'
_symmetry_cell_setting 'tetragonal'
loop_
_space_group_symop_operation_xyz
x,y,z
1/2-y,x,1/2+z
1/2-x,1/2-y,z
y,1/2-x,1/2+z
x,1/2-y,1/2-z
1/2-x,y,1/2-z
y,x,-z
1/2-y,1/2-x,-z
-x,-y,-z
1/2+y,-x,1/2-z
1/2+x,1/2+y,-z
-y,1/2+x,1/2-z
-x,1/2+y,1/2+z
1/2+x,-y,1/2+z
-y,-x,z
1/2+y,1/2+x,z
loop_
_atom_site_type_symbol
_atom_site_label
_atom_site_fract_x
_atom_site_fract_y
_atom_site_fract_z
Si Si1 0.587988 0.250908 0.447736
Si Si2 0.795539 0.051072 0.183647
Si Si3 0.901738 0.558411 0.733836
Si Si4 0.275922 0.135873 0.166932
Si Si5 0.744718 0.899281 0.975039
O O1 0.658188 0.341813 0.456660
O O2 0.655559 0.155559 0.449913
O O3 0.540510 0.258392 0.380227
O O4 0.505499 0.243772 0.498113
O O5 0.750000 0.048812 0.250000
O O6 0.844661 0.155339 0.179072
O O7 0.877076 0.970419 0.191251
O O8 0.875360 0.610968 0.797759
O O9 0.802083 0.564780 0.697742
O O10 0.957826 0.457826 0.743209
O O11 0.250000 0.250000 0.176974
O O12 0.266775 0.113119 0.096598
O O13 0.831995 0.831995 0.000000
O O14 0.646811 0.853190 0.000000
#
# Coordination Sequence:
#
# PCOD9568186 Si02
#       5
#    16  16  16  16  16
#     4  10  23  41  59  86 124 162 201 249 307 367
#     4  10  19  32  53  80 114 151 191 233 286 353
#     4  10  22  36  59  91 116 150 200 244 299 364
#     4  11  21  40  64  84 122 159 192 251 308 349
#     4  11  23  39  63  88 119 159 212 255 299 360
#
# _framework density 18.868521999999999
#
# number of rings (size 3 to 8) (size 9 to 14) (size 15 to 20)
#    0.000    1.600    2.000    4.200    2.800    3.400 
#    0.000    0.000    0.000    4.800    0.000    0.000 
#    0.000    0.000    0.000    0.000    0.000    0.000 
#
# Total GULP energy -445622.363849 kJ/mol
# GULP energy per Si atom -5570.279548 kJ/mol
# Density = 1.882558 g / cm^3
# Si number density = 18.868522 Si / 1000 Ang^3
#
#
#
# Elastic Constant Matrix: (Units=GPa)
#
#
# Indices 1 2 3 4 5 6 
#
# 1 84.0015 43.3985 44.6160 0.0000 0.0000 0.0000
# 2 43.3985 83.9976 44.6143 0.0000 0.0000 0.0000
# 3 44.6160 44.6143 155.4882 0.0000 0.0000 0.0000
# 4 0.0000 0.0000 0.0000 5.5754 0.0000 0.0000
# 5 0.0000 0.0000 0.0000 0.0000 5.5652 0.0000
# 6 0.0000 0.0000 0.0000 0.0000 0.0000 31.1410
#
#
#
# Elastic Compliance Matrix: (Units=1/GPa)
#
#
# Indices 1 2 3 4 5 6 
#
# 1 0.017226 -0.007403 -0.002819 0.000000 0.000000 0.000000
# 2 -0.007403 0.017227 -0.002819 0.000000 0.000000 0.000000
# 3 -0.002819 -0.002819 0.008049 0.000000 0.000000 0.000000
# 4 0.000000 0.000000 0.000000 0.179360 0.000000 0.000000
# 5 0.000000 0.000000 0.000000 0.000000 0.179688 0.000000
# 6 0.000000 0.000000 0.000000 0.000000 0.000000 0.032112
#
#
# Mechanical properties :
#
#
# Convention : Reuss Voigt Hill
#
# Bulk Modulus (GPa) = 60.89661 65.41612 63.15636
# Shear Modulus (GPa) = 10.74765 21.18021 15.96393
#
# Velocity S-wave (km/s) = 2.38923 3.35403 2.91187
# Velocity P-wave (km/s) = 6.32104 7.05295 6.69700
#
# Compressibility (1/GPa) = 0.01642128
#
# Stress axis : x y z
#
# Youngs Moduli (GPa) = 58.05023 58.04783 124.23946
#
# Poissons Ratio (x) = 0.42973 0.35021
# Poissons Ratio (y) = 0.42975 0.35020
# Poissons Ratio (z) = 0.16363 0.16362
#
# Static dielectric constant tensor:
#      x y z
#    x 1.701040 0.000000 0.000000 
#    y 0.000000 1.701040 0.000000 
#    z 0.000000 0.000000 1.729510 
# 
# From -- ./inp_files/8854.got.cif
#   From: 2010.05.17/outbox.cif.g08.bks.cpg/sg134_5_cif.got.tgz:8854.got - 2010.05.20 12:42:49.
