data_PCOD9568716
_publ_section_title
;
Structure prediction by ZEFSAII (Michael W. Deem and Ramdas Pophale) SiO2 
 PCOD9568716
Probable space group: P 42/M B C
;
_chemical_formula_sum "Si O2"
_cell_formula_units_Z 112
_cell_length_a 14.975210
_cell_length_b 14.975210
_cell_length_c 24.328006
_cell_angle_alpha 90.000000
_cell_angle_beta 90.000000
_cell_angle_gamma 90.000000
_cell_volume 5455.723563
_symmetry_space_group_name_H-M "P 42/M B C"
_symmetry_group_IT_number 135
_symmetry_cell_setting 'tetragonal'
loop_
_space_group_symop_operation_xyz
x,y,z
-y,x,1/2+z
-x,-y,z
y,-x,1/2+z
1/2+x,1/2-y,-z
1/2-x,1/2+y,-z
1/2+y,1/2+x,1/2-z
1/2-y,1/2-x,1/2-z
-x,-y,-z
y,-x,1/2-z
x,y,-z
-y,x,1/2-z
1/2-x,1/2+y,z
1/2+x,1/2-y,z
1/2-y,1/2-x,1/2+z
1/2+y,1/2+x,1/2+z
loop_
_atom_site_type_symbol
_atom_site_label
_atom_site_fract_x
_atom_site_fract_y
_atom_site_fract_z
Si Si1 0.273639 0.215478 0.651073
Si Si2 0.117318 0.327481 0.153144
Si Si3 0.366142 0.645442 0.434608
Si Si4 0.094697 0.513169 0.907564
Si Si5 0.442111 0.138320 0.197531
Si Si6 0.782515 0.940659 0.911303
Si Si7 0.313125 0.441354 0.560491
O O1 0.210734 0.291011 0.674969
O O2 0.221489 0.187185 0.594867
O O3 0.283910 0.129652 0.689160
O O4 0.372535 0.256801 0.638999
O O5 0.124741 0.422361 0.122859
O O6 0.081557 0.258977 0.106593
O O7 0.042834 0.331036 0.199446
O O8 0.369024 0.667364 0.500000
O O9 0.458136 0.680113 0.406813
O O10 0.356909 0.538160 0.429559
O O11 0.068808 0.581577 0.858574
O O12 0.183345 0.548414 0.937277
O O13 0.000000 0.500000 0.937512
O O14 0.418328 0.081673 0.250000
O O15 0.862441 0.886138 0.939368
O O16 0.270156 0.444665 0.500000
#
# Coordination Sequence:
#
# PCOD9568716 Si02
#       7
#    16  16  16  16  16  16  16
#     4  10  21  38  59  88 122 159 196 252 308 362
#     4  10  19  37  62  85 119 157 196 247 307 360
#     4  11  21  36  60  87 118 163 209 248 297 359
#     4   9  19  35  59  80 114 156 195 247 311 359
#     4  10  21  40  61  87 119 149 197 256 305 370
#     4  10  20  36  56  84 122 159 205 255 297 361
#     4  10  21  36  58  86 120 163 208 248 295 362
#
# _framework density 20.528898999999999
#
# number of rings (size 3 to 8) (size 9 to 14) (size 15 to 20)
#    0.000    2.000    2.857    0.857    0.000    6.571 
#    2.571    0.000    0.000    5.571    0.000    0.000 
#    0.000    0.000    0.000    0.000    0.000    0.000 
#
# Total GULP energy -624095.709416 kJ/mol
# GULP energy per Si atom -5572.283120 kJ/mol
# Density = 2.048217 g / cm^3
# Si number density = 20.528899 Si / 1000 Ang^3
#
#
#
# Elastic Constant Matrix: (Units=GPa)
#
#
# Indices 1 2 3 4 5 6 
#
# 1 105.5298 36.1002 7.3956 0.0000 0.0000 0.0000
# 2 36.1002 105.5292 7.3948 0.0000 0.0000 0.0000
# 3 7.3956 7.3948 28.6154 0.0000 0.0000 0.0000
# 4 0.0000 0.0000 0.0000 5.5025 0.0000 0.0000
# 5 0.0000 0.0000 0.0000 0.0000 5.5077 0.0000
# 6 0.0000 0.0000 0.0000 0.0000 0.0000 33.1725
#
#
#
# Elastic Compliance Matrix: (Units=1/GPa)
#
#
# Indices 1 2 3 4 5 6 
#
# 1 0.010830 -0.003573 -0.001876 0.000000 0.000000 0.000000
# 2 -0.003573 0.010830 -0.001875 0.000000 0.000000 0.000000
# 3 -0.001876 -0.001875 0.035915 0.000000 0.000000 0.000000
# 4 0.000000 0.000000 0.000000 0.181736 0.000000 0.000000
# 5 0.000000 0.000000 0.000000 0.000000 0.181564 0.000000
# 6 0.000000 0.000000 0.000000 0.000000 0.000000 0.030145
#
#
# Mechanical properties :
#
#
# Convention : Reuss Voigt Hill
#
# Bulk Modulus (GPa) = 23.29527 37.93951 30.61739
# Shear Modulus (GPa) = 10.41715 21.42213 15.91964
#
# Velocity S-wave (km/s) = 2.25508 3.23385 2.78776
# Velocity P-wave (km/s) = 4.26060 5.69779 5.03078
#
# Compressibility (1/GPa) = 0.04292718
#
# Stress axis : x y z
#
# Youngs Moduli (GPa) = 92.33767 92.33756 27.84317
#
# Poissons Ratio (x) = 0.32995 0.05222
# Poissons Ratio (y) = 0.32995 0.05221
# Poissons Ratio (z) = 0.17318 0.17314
#
# Static dielectric constant tensor:
#      x y z
#    x 1.770210 0.000000 0.000000 
#    y 0.000000 1.770210 0.000000 
#    z 0.000000 0.000000 1.722670 
# 
# From -- ./inp_files/6488.got.cif
#   From: 2010.05.17/outbox.cif.g08.bks.cpg/sg135_4_cif.got.tgz:6488.got - 2010.05.20 12:50:20.
