data_PCOD9568176
_publ_section_title
;
Structure prediction by ZEFSAII (Michael W. Deem and Ramdas Pophale) SiO2 
 PCOD9568176
Probable space group: P 42/N N M
;
_chemical_formula_sum "Si O2"
_cell_formula_units_Z 96
_cell_length_a 15.388960
_cell_length_b 15.388960
_cell_length_c 20.347226
_cell_angle_alpha 90.000000
_cell_angle_beta 90.000000
_cell_angle_gamma 90.000000
_cell_volume 4818.631890
_symmetry_space_group_name_H-M "P 42/N N M"
_symmetry_group_IT_number 134
_space_group.IT_coordinate_system_code '2'
_symmetry_cell_setting 'tetragonal'
loop_
_space_group_symop_operation_xyz
x,y,z
1/2-y,x,1/2+z
1/2-x,1/2-y,z
y,1/2-x,1/2+z
x,1/2-y,1/2-z
1/2-x,y,1/2-z
y,x,-z
1/2-y,1/2-x,-z
-x,-y,-z
1/2+y,-x,1/2-z
1/2+x,1/2+y,-z
-y,1/2+x,1/2-z
-x,1/2+y,1/2+z
1/2+x,-y,1/2+z
-y,-x,z
1/2+y,1/2+x,z
loop_
_atom_site_type_symbol
_atom_site_label
_atom_site_fract_x
_atom_site_fract_y
_atom_site_fract_z
Si Si1 0.065430 0.794344 0.957404
Si Si2 0.349267 0.993458 0.406108
Si Si3 0.476031 0.118892 0.053544
Si Si4 0.472749 0.119433 0.339056
Si Si5 0.905214 0.549316 0.197168
Si Si6 0.446819 0.693379 0.314748
O O1 0.161735 0.838266 0.961322
O O2 0.044511 0.693137 0.966981
O O3 0.025918 0.817818 0.886570
O O4 0.011070 0.841293 0.015341
O O5 0.414086 0.914086 0.387602
O O6 0.257256 0.974859 0.372723
O O7 0.389681 0.081343 0.377317
O O8 0.440362 0.139617 0.126421
O O9 0.529102 0.029102 0.060346
O O10 0.401536 0.098464 0.000000
O O11 0.450985 0.147665 0.265112
O O12 0.536324 0.036324 0.331789
O O13 0.957995 0.457995 0.194763
O O14 0.976703 0.625546 0.201958
O O15 0.428918 0.750000 0.250000
O O16 0.363219 0.636782 0.333286
#
# Coordination Sequence:
#
# PCOD9568176 Si02
#       6
#    16  16  16  16  16  16
#     4  10  21  35  57  85 111 144 192 250 296 333
#     4  10  19  32  50  77 113 151 187 229 285 348
#     4  10  21  38  58  82 115 156 194 228 283 361
#     4   9  17  33  54  78 103 137 192 243 284 341
#     4   9  18  33  54  76 104 148 193 231 275 342
#     4  11  20  31  50  81 117 150 186 232 284 347
#
# _framework density 19.922667000000001
#
# number of rings (size 3 to 8) (size 9 to 14) (size 15 to 20)
#    0.000    2.167    1.667    2.000    0.000    6.167 
#    0.000    1.667    0.000    7.000    0.000    4.667 
#    0.000    0.000    0.000    0.000    0.000    0.000 
#
# Total GULP energy -534851.074001 kJ/mol
# GULP energy per Si atom -5571.365354 kJ/mol
# Density = 1.987732 g / cm^3
# Si number density = 19.922667 Si / 1000 Ang^3
#
#
#
# Elastic Constant Matrix: (Units=GPa)
#
#
# Indices 1 2 3 4 5 6 
#
# 1 47.1219 -6.7732 10.6135 0.0000 0.0000 0.0000
# 2 -6.7732 47.1272 10.6137 0.0000 0.0000 0.0000
# 3 10.6135 10.6137 123.6591 0.0000 0.0000 0.0000
# 4 0.0000 0.0000 0.0000 17.1225 0.0000 0.0000
# 5 0.0000 0.0000 0.0000 0.0000 17.1227 0.0000
# 6 0.0000 0.0000 0.0000 0.0000 0.0000 7.4454
#
#
#
# Elastic Compliance Matrix: (Units=1/GPa)
#
#
# Indices 1 2 3 4 5 6 
#
# 1 0.022255 0.003700 -0.002228 0.000000 0.000000 0.000000
# 2 0.003700 0.022253 -0.002228 0.000000 0.000000 0.000000
# 3 -0.002228 -0.002228 0.008469 0.000000 0.000000 0.000000
# 4 0.000000 0.000000 0.000000 0.058403 0.000000 0.000000
# 5 0.000000 0.000000 0.000000 0.000000 0.058402 0.000000
# 6 0.000000 0.000000 0.000000 0.000000 0.000000 0.134311
#
#
# Mechanical properties :
#
#
# Convention : Reuss Voigt Hill
#
# Bulk Modulus (GPa) = 19.42994 27.42403 23.42699
# Shear Modulus (GPa) = 15.49149 21.90174 18.69661
#
# Velocity S-wave (km/s) = 2.79154 3.31922 3.06675
# Velocity P-wave (km/s) = 4.49045 5.33711 4.93198
#
# Compressibility (1/GPa) = 0.05146696
#
# Stress axis : x y z
#
# Youngs Moduli (GPa) = 44.93334 44.93848 118.07574
#
# Poissons Ratio (x) = -0.16628 0.26304
# Poissons Ratio (y) = -0.16626 0.26302
# Poissons Ratio (z) = 0.10010 0.10010
#
# Static dielectric constant tensor:
#      x y z
#    x 1.689640 0.000000 0.000000 
#    y 0.000000 1.689640 0.000000 
#    z 0.000000 0.000000 1.765800 
# 
# From -- ./inp_files/7860.got.cif
#   From: 2010.05.17/outbox.cif.g08.bks.cpg/sg134_4_cif.got.tgz:7860.got - 2010.05.20 12:42:49.
