data_PCOD9568324
_publ_section_title
;
Structure prediction by ZEFSAII (Michael W. Deem and Ramdas Pophale) SiO2 
 PCOD9568324
Probable space group: P 42/N N M
;
_chemical_formula_sum "Si O2"
_cell_formula_units_Z 88
_cell_length_a 12.468716
_cell_length_b 12.468716
_cell_length_c 28.253819
_cell_angle_alpha 90.000000
_cell_angle_beta 90.000000
_cell_angle_gamma 90.000000
_cell_volume 4392.589559
_symmetry_space_group_name_H-M "P 42/N N M"
_symmetry_group_IT_number 134
_space_group.IT_coordinate_system_code '2'
_symmetry_cell_setting 'tetragonal'
loop_
_space_group_symop_operation_xyz
x,y,z
1/2-y,x,1/2+z
1/2-x,1/2-y,z
y,1/2-x,1/2+z
x,1/2-y,1/2-z
1/2-x,y,1/2-z
y,x,-z
1/2-y,1/2-x,-z
-x,-y,-z
1/2+y,-x,1/2-z
1/2+x,1/2+y,-z
-y,1/2+x,1/2-z
-x,1/2+y,1/2+z
1/2+x,-y,1/2+z
-y,-x,z
1/2+y,1/2+x,z
loop_
_atom_site_type_symbol
_atom_site_label
_atom_site_fract_x
_atom_site_fract_y
_atom_site_fract_z
Si Si1 0.250000 0.083563 0.750000
Si Si2 0.258100 0.572751 0.569081
Si Si3 0.327199 0.488490 0.022420
Si Si4 0.982302 0.844845 0.283649
Si Si5 0.300897 0.516258 0.131306
Si Si6 0.523477 0.844936 0.654721
O O1 0.143648 0.143215 0.729522
O O2 0.213364 0.018449 0.795665
O O3 0.365798 0.634203 0.581386
O O4 0.162684 0.662684 0.568710
O O5 0.257761 0.526517 0.516369
O O6 0.229242 0.485669 0.608622
O O7 0.423431 0.576570 0.024108
O O8 0.285441 0.487707 0.075973
O O9 0.382992 0.382992 0.000000
O O10 0.025447 0.750000 0.250000
O O11 0.010911 0.804432 0.336466
O O12 0.044893 0.955108 0.273507
O O13 0.374267 0.625734 0.134594
O O14 0.372758 0.419717 0.152291
O O15 0.424908 0.924908 0.651283
#
# Coordination Sequence:
#
# PCOD9568324 Si02
#       6
#     8  16  16  16  16  16
#     4  12  25  42  66  89 118 167 216 256 303 384
#     4   9  17  29  49  82 122 161 204 259 320 376
#     4   9  15  28  53  84 120 162 208 257 312 381
#     4  12  26  43  64  93 127 165 210 262 322 383
#     4  10  20  35  60  93 125 162 207 261 323 383
#     4  10  20  36  59  88 121 157 208 265 316 375
#
# _framework density 20.033742
#
# number of rings (size 3 to 8) (size 9 to 14) (size 15 to 20)
#    0.000    1.818    3.636    1.364    0.000    3.455 
#    0.000    1.818    0.000    3.545    0.000    2.545 
#    0.000    0.000    0.000    0.000    0.000    0.000 
#
# Total GULP energy -490466.952853 kJ/mol
# GULP energy per Si atom -5573.488101 kJ/mol
# Density = 1.998814 g / cm^3
# Si number density = 20.033742 Si / 1000 Ang^3
#
#
#
# Elastic Constant Matrix: (Units=GPa)
#
#
# Indices 1 2 3 4 5 6 
#
# 1 49.6718 20.8186 0.7674 0.0000 0.0000 0.0000
# 2 20.8186 49.6718 0.7674 0.0000 0.0000 0.0000
# 3 0.7674 0.7674 76.8263 0.0000 0.0000 0.0000
# 4 0.0000 0.0000 0.0000 18.8734 0.0000 0.0000
# 5 0.0000 0.0000 0.0000 0.0000 18.8734 0.0000
# 6 0.0000 0.0000 0.0000 0.0000 0.0000 -100.7478
#
#
#
# Elastic Compliance Matrix: (Units=1/GPa)
#
#
# Indices 1 2 3 4 5 6 
#
# 1 0.024424 -0.010234 -0.000142 0.000000 0.000000 0.000000
# 2 -0.010234 0.024424 -0.000142 0.000000 0.000000 0.000000
# 3 -0.000142 -0.000142 0.013019 0.000000 0.000000 0.000000
# 4 0.000000 0.000000 0.000000 0.052985 0.000000 0.000000
# 5 0.000000 0.000000 0.000000 0.000000 0.052985 0.000000
# 6 0.000000 0.000000 0.000000 0.000000 0.000000 -0.009926
#
#
# Mechanical properties :
#
#
# Convention : Reuss Voigt Hill
#
# Bulk Modulus (GPa) = 24.49111 24.54183 24.51647
# Shear Modulus (GPa) = 25.96644 -2.34576 11.81034
#
# Velocity S-wave (km/s) = 3.60409 -1.08326 2.43064
# Velocity P-wave (km/s) = 5.43790 3.27296 4.48793
#
# Compressibility (1/GPa) = 0.04083113
#
# Stress axis : x y z
#
# Youngs Moduli (GPa) = 40.94374 40.94374 76.80959
#
# Poissons Ratio (x) = 0.41903 0.01089
# Poissons Ratio (y) = 0.41903 0.01089
# Poissons Ratio (z) = 0.00580 0.00580
#
# Static dielectric constant tensor:
#      x y z
#    x 1.706380 0.000000 0.000000 
#    y 0.000000 1.706380 0.000000 
#    z 0.000000 0.000000 2.345890 
# 
# From -- ./inp_files/11439.got.cif
#   From: 2010.05.17/outbox.cif.g08.bks.cpg/sg134_6_cif.got.tgz:11439.got - 2010.05.20 12:42:49.
