data_PCOD9568148
_publ_section_title
;
Structure prediction by ZEFSAII (Michael W. Deem and Ramdas Pophale) SiO2 
 PCOD9568148
Probable space group: P 42/N N M
;
_chemical_formula_sum "Si O2"
_cell_formula_units_Z 88
_cell_length_a 15.401585
_cell_length_b 15.401585
_cell_length_c 19.450616
_cell_angle_alpha 90.000000
_cell_angle_beta 90.000000
_cell_angle_gamma 90.000000
_cell_volume 4613.857680
_symmetry_space_group_name_H-M "P 42/N N M"
_symmetry_group_IT_number 134
_space_group.IT_coordinate_system_code '2'
_symmetry_cell_setting 'tetragonal'
loop_
_space_group_symop_operation_xyz
x,y,z
1/2-y,x,1/2+z
1/2-x,1/2-y,z
y,1/2-x,1/2+z
x,1/2-y,1/2-z
1/2-x,y,1/2-z
y,x,-z
1/2-y,1/2-x,-z
-x,-y,-z
1/2+y,-x,1/2-z
1/2+x,1/2+y,-z
-y,1/2+x,1/2-z
-x,1/2+y,1/2+z
1/2+x,-y,1/2+z
-y,-x,z
1/2+y,1/2+x,z
loop_
_atom_site_type_symbol
_atom_site_label
_atom_site_fract_x
_atom_site_fract_y
_atom_site_fract_z
Si Si1 0.147035 0.852966 0.752031
Si Si2 0.463381 0.536620 0.642228
Si Si3 0.813979 0.561401 0.458872
Si Si4 0.000356 0.747883 0.400094
Si Si5 0.445355 0.554646 0.872930
Si Si6 0.879196 0.857143 0.581507
Si Si7 0.921300 0.421300 0.672031
Si Si8 0.604125 0.395876 0.675611
O O1 0.131151 0.750000 0.750000
O O2 0.095434 0.904567 0.692112
O O3 0.112957 0.887044 0.824409
O O4 0.530208 0.595664 0.599104
O O5 0.530104 0.469896 0.677511
O O6 0.862567 0.637434 0.500000
O O7 0.767035 0.502802 0.517569
O O8 0.885236 0.505507 0.419951
O O9 0.744496 0.604101 0.407154
O O10 0.907843 0.797297 0.385001
O O11 0.029021 0.656503 0.367707
O O12 0.067781 0.815401 0.367417
O O13 0.505126 0.494875 0.824839
O O14 0.863536 0.863536 0.500000
O O15 0.882654 0.382654 0.743025
#
# Coordination Sequence:
#
# PCOD9568148 Si02
#       8
#     8   8  16  16   8  16   8   8
#     4  11  24  41  61  87 119 160 207 259 314 375
#     4  10  18  38  59  80 116 155 208 247 307 380
#     4  11  21  38  61  92 128 163 210 262 327 390
#     4  10  22  38  61  91 126 164 218 260 324 388
#     4  12  23  40  64  93 123 175 209 259 335 393
#     4   9  20  35  59  89 119 161 204 263 314 374
#     4  12  21  40  62  90 127 170 217 263 323 405
#     4  10  22  40  63  89 120 171 211 267 320 384
#
# _framework density 19.072977000000002
#
# number of rings (size 3 to 8) (size 9 to 14) (size 15 to 20)
#    0.000    1.545    2.727    2.727    0.000    5.818 
#    0.000    2.727    0.000    0.000    4.727    0.000 
#    0.000    0.000    0.000    0.000    0.000    0.000 
#
# Total GULP energy -490151.894273 kJ/mol
# GULP energy per Si atom -5569.907889 kJ/mol
# Density = 1.902957 g / cm^3
# Si number density = 19.072977 Si / 1000 Ang^3
#
#
#
# Elastic Constant Matrix: (Units=GPa)
#
#
# Indices 1 2 3 4 5 6 
#
# 1 107.1367 56.5156 16.4986 0.0000 0.0000 0.0000
# 2 56.5156 107.1353 16.4979 0.0000 0.0000 0.0000
# 3 16.4986 16.4979 38.1285 0.0000 0.0000 0.0000
# 4 0.0000 0.0000 0.0000 28.3043 0.0000 0.0000
# 5 0.0000 0.0000 0.0000 0.0000 28.3047 0.0000
# 6 0.0000 0.0000 0.0000 0.0000 0.0000 30.0457
#
#
#
# Elastic Compliance Matrix: (Units=1/GPa)
#
#
# Indices 1 2 3 4 5 6 
#
# 1 0.013225 -0.006530 -0.002897 0.000000 0.000000 0.000000
# 2 -0.006530 0.013225 -0.002897 0.000000 0.000000 0.000000
# 3 -0.002897 -0.002897 0.028734 0.000000 0.000000 0.000000
# 4 0.000000 0.000000 0.000000 0.035330 0.000000 0.000000
# 5 0.000000 0.000000 0.000000 0.000000 0.035330 0.000000
# 6 0.000000 0.000000 0.000000 0.000000 0.000000 0.033283
#
#
# Mechanical properties :
#
#
# Convention : Reuss Voigt Hill
#
# Bulk Modulus (GPa) = 32.74807 47.93606 40.34207
# Shear Modulus (GPa) = 25.77953 28.19017 26.98485
#
# Velocity S-wave (km/s) = 3.68044 3.84867 3.76549
# Velocity P-wave (km/s) = 5.93868 6.70352 6.33266
#
# Compressibility (1/GPa) = 0.03053615
#
# Stress axis : x y z
#
# Youngs Moduli (GPa) = 75.61610 75.61551 34.80201
#
# Poissons Ratio (x) = 0.49378 0.10082
# Poissons Ratio (y) = 0.49378 0.10081
# Poissons Ratio (z) = 0.21905 0.21903
#
# Static dielectric constant tensor:
#      x y z
#    x 1.689440 0.000000 0.000000 
#    y 0.000000 1.689440 0.000000 
#    z 0.000000 0.000000 1.652140 
# 
# From -- ./inp_files/9090.got.cif
#   From: 2010.05.17/outbox.cif.g08.bks.cpg/sg134_5_cif.got.tgz:9090.got - 2010.05.20 12:42:49.
