data_PCOD9568261
_publ_section_title
;
Structure prediction by ZEFSAII (Michael W. Deem and Ramdas Pophale) SiO2 
 PCOD9568261
Probable space group: P 42/N N M
;
_chemical_formula_sum "Si O2"
_cell_formula_units_Z 80
_cell_length_a 29.846464
_cell_length_b 29.846464
_cell_length_c 5.052588
_cell_angle_alpha 90.000000
_cell_angle_beta 90.000000
_cell_angle_gamma 90.000000
_cell_volume 4500.903057
_symmetry_space_group_name_H-M "P 42/N N M"
_symmetry_group_IT_number 134
_space_group.IT_coordinate_system_code '2'
_symmetry_cell_setting 'tetragonal'
loop_
_space_group_symop_operation_xyz
x,y,z
1/2-y,x,1/2+z
1/2-x,1/2-y,z
y,1/2-x,1/2+z
x,1/2-y,1/2-z
1/2-x,y,1/2-z
y,x,-z
1/2-y,1/2-x,-z
-x,-y,-z
1/2+y,-x,1/2-z
1/2+x,1/2+y,-z
-y,1/2+x,1/2-z
-x,1/2+y,1/2+z
1/2+x,-y,1/2+z
-y,-x,z
1/2+y,1/2+x,z
loop_
_atom_site_type_symbol
_atom_site_label
_atom_site_fract_x
_atom_site_fract_y
_atom_site_fract_z
Si Si1 0.909613 0.985610 0.028875
Si Si2 0.097353 0.133126 0.257952
Si Si3 0.525666 0.218840 0.988671
Si Si4 0.456036 0.615329 0.481140
Si Si5 0.221041 0.078501 0.488118
O O1 0.870739 0.950560 0.114757
O O2 0.907853 0.021088 0.264488
O O3 0.954338 0.954338 0.000000
O O4 0.897215 0.011502 0.763182
O O5 0.097166 0.097166 0.500000
O O6 0.104554 0.176993 0.429813
O O7 0.128428 0.128428 0.000000
O O8 0.543261 0.250000 0.750000
O O9 0.546482 0.169234 0.014558
O O10 0.473084 0.209086 0.923808
O O11 0.528134 0.250000 0.250000
O O12 0.408336 0.591665 0.436599
O O13 0.250000 0.097397 0.250000
O O14 0.250000 0.076671 0.750000
#
# Coordination Sequence:
#
# PCOD9568261 Si02
#       5
#    16  16  16  16  16
#     4  11  23  36  53  74 110 154 192 227 262 308
#     4  11  21  34  54  76 108 147 185 227 277 328
#     4  10  21  36  56  76 104 138 178 227 284 328
#     4  12  24  38  56  79 109 143 194 235 265 320
#     4  10  20  32  53  78 101 134 182 229 276 331
#
# _framework density 17.774211000000001
#
# number of rings (size 3 to 8) (size 9 to 14) (size 15 to 20)
#    0.000    1.200    2.000    6.000    5.600    2.400 
#    0.000    0.000    0.000    0.000    0.000    0.000 
#    0.000   13.600    0.000    0.000    0.000    0.000 
#
# Total GULP energy -446072.835530 kJ/mol
# GULP energy per Si atom -5575.910444 kJ/mol
# Density = 1.773376 g / cm^3
# Si number density = 17.774211 Si / 1000 Ang^3
#
#
#
# Elastic Constant Matrix: (Units=GPa)
#
#
# Indices 1 2 3 4 5 6 
#
# 1 66.5748 65.4565 45.0277 0.0000 0.0000 0.0000
# 2 65.4565 66.5748 45.0277 0.0000 0.0000 0.0000
# 3 45.0277 45.0277 139.1491 0.0000 0.0000 0.0000
# 4 0.0000 0.0000 0.0000 -26.9546 0.0000 0.0000
# 5 0.0000 0.0000 0.0000 0.0000 -26.9546 0.0000
# 6 0.0000 0.0000 0.0000 0.0000 0.0000 13.1015
#
#
#
# Elastic Compliance Matrix: (Units=1/GPa)
#
#
# Indices 1 2 3 4 5 6 
#
# 1 0.451987 -0.442267 -0.003145 0.000000 0.000000 0.000000
# 2 -0.442267 0.451987 -0.003145 0.000000 0.000000 0.000000
# 3 -0.003145 -0.003145 0.009222 0.000000 0.000000 0.000000
# 4 0.000000 0.000000 0.000000 -0.037099 0.000000 0.000000
# 5 0.000000 0.000000 0.000000 0.000000 -0.037099 0.000000
# 6 0.000000 0.000000 0.000000 0.000000 0.000000 0.076327
#
#
# Mechanical properties :
#
#
# Convention : Reuss Voigt Hill
#
# Bulk Modulus (GPa) = 62.18892 64.81363 63.50128
# Shear Modulus (GPa) = 2.75058 -0.37576 1.18741
#
# Velocity S-wave (km/s) = 1.24534 -0.46029 0.81823
# Velocity P-wave (km/s) = 6.09361 6.02177 6.05779
#
# Compressibility (1/GPa) = 0.01608003
#
# Stress axis : x y z
#
# Youngs Moduli (GPa) = 2.21245 2.21245 108.43679
#
# Poissons Ratio (x) = 0.97850 0.34104
# Poissons Ratio (y) = 0.97850 0.34104
# Poissons Ratio (z) = 0.00696 0.00696
#
# Static dielectric constant tensor:
#      x y z
#    x 1.649090 0.000000 0.000000 
#    y 0.000000 1.649090 0.000000 
#    z 0.000000 0.000000 1.641290 
# 
# From -- ./inp_files/1153.got.cif
#   From: 2010.05.17/outbox.cif.g08.bks.cpg/sg134_1_cif.got.tgz:1153.got - 2010.05.20 12:42:49.
