data_PCOD9568471
_publ_section_title
;
Structure prediction by ZEFSAII (Michael W. Deem and Ramdas Pophale) SiO2 
 PCOD9568471
Probable space group: P 42/N N M
;
_chemical_formula_sum "Si O2"
_cell_formula_units_Z 96
_cell_length_a 15.334231
_cell_length_b 15.334231
_cell_length_c 20.945162
_cell_angle_alpha 90.000000
_cell_angle_beta 90.000000
_cell_angle_gamma 90.000000
_cell_volume 4925.016915
_symmetry_space_group_name_H-M "P 42/N N M"
_symmetry_group_IT_number 134
_space_group.IT_coordinate_system_code '2'
_symmetry_cell_setting 'tetragonal'
loop_
_space_group_symop_operation_xyz
x,y,z
1/2-y,x,1/2+z
1/2-x,1/2-y,z
y,1/2-x,1/2+z
x,1/2-y,1/2-z
1/2-x,y,1/2-z
y,x,-z
1/2-y,1/2-x,-z
-x,-y,-z
1/2+y,-x,1/2-z
1/2+x,1/2+y,-z
-y,1/2+x,1/2-z
-x,1/2+y,1/2+z
1/2+x,-y,1/2+z
-y,-x,z
1/2+y,1/2+x,z
loop_
_atom_site_type_symbol
_atom_site_label
_atom_site_fract_x
_atom_site_fract_y
_atom_site_fract_z
Si Si1 0.935522 0.920587 0.368124
Si Si2 0.745230 0.999251 0.948033
Si Si3 0.508600 0.147761 0.736688
Si Si4 0.177546 0.677546 0.593110
Si Si5 0.246456 0.500053 0.903862
Si Si6 0.435154 0.083107 0.601631
Si Si7 0.322754 0.822754 0.447077
O O1 0.956346 0.834806 0.410584
O O2 0.836870 0.954198 0.373351
O O3 0.957733 0.895405 0.295712
O O4 0.002281 0.997720 0.387942
O O5 0.835011 0.945853 0.945283
O O6 0.777812 0.091657 0.918228
O O7 0.720220 0.013267 0.021669
O O8 0.511706 0.250000 0.750000
O O9 0.603894 0.103894 0.735200
O O10 0.461819 0.120793 0.671012
O O11 0.250000 0.750000 0.586993
O O12 0.223071 0.593651 0.623467
O O13 0.151060 0.651060 0.520069
O O14 0.335712 0.446451 0.899254
O O15 0.503228 0.003228 0.587310
O O16 0.250000 0.750000 0.449356
#
# Coordination Sequence:
#
# PCOD9568471 Si02
#       7
#    16  16  16   8  16  16   8
#     4  11  24  42  62  91 130 167 207 261 317 371
#     4  11  21  36  60  89 129 165 206 256 314 378
#     4  10  22  43  67  92 123 164 209 256 307 364
#     4   9  18  35  57  85 119 156 213 255 299 368
#     4  11  23  37  61  91 122 171 207 255 319 372
#     4  11  22  40  64  91 125 164 210 262 307 365
#     4   9  18  31  53  87 121 164 203 245 305 374
#
# _framework density 19.492318000000001
#
# number of rings (size 3 to 8) (size 9 to 14) (size 15 to 20)
#    0.000    1.500    3.333    2.000    0.000    4.833 
#    0.000    2.500    0.000    0.000    0.000    0.000 
#    0.000    0.000    0.000    0.000    0.000    0.000 
#
# Total GULP energy -535787.285196 kJ/mol
# GULP energy per Si atom -5581.117554 kJ/mol
# Density = 1.944795 g / cm^3
# Si number density = 19.492318 Si / 1000 Ang^3
#
#
#
# Elastic Constant Matrix: (Units=GPa)
#
#
# Indices 1 2 3 4 5 6 
#
# 1 142.6583 68.2651 11.4424 0.0000 0.0000 0.0000
# 2 68.2651 142.6583 11.4424 0.0000 0.0000 0.0000
# 3 11.4424 11.4424 47.5242 0.0000 0.0000 0.0000
# 4 0.0000 0.0000 0.0000 9.8652 0.0000 0.0000
# 5 0.0000 0.0000 0.0000 0.0000 9.8652 0.0000
# 6 0.0000 0.0000 0.0000 0.0000 0.0000 32.5972
#
#
#
# Elastic Compliance Matrix: (Units=1/GPa)
#
#
# Indices 1 2 3 4 5 6 
#
# 1 0.009155 -0.004287 -0.001172 0.000000 0.000000 0.000000
# 2 -0.004287 0.009155 -0.001172 0.000000 0.000000 0.000000
# 3 -0.001172 -0.001172 0.021606 0.000000 0.000000 0.000000
# 4 0.000000 0.000000 0.000000 0.101367 0.000000 0.000000
# 5 0.000000 0.000000 0.000000 0.000000 0.101367 0.000000
# 6 0.000000 0.000000 0.000000 0.000000 0.000000 0.030678
#
#
# Mechanical properties :
#
#
# Convention : Reuss Voigt Hill
#
# Bulk Modulus (GPa) = 37.51739 57.23785 47.37762
# Shear Modulus (GPa) = 16.92192 26.57823 21.75008
#
# Velocity S-wave (km/s) = 2.94961 3.69660 3.34403
# Velocity P-wave (km/s) = 5.55781 6.90274 6.26646
#
# Compressibility (1/GPa) = 0.02665430
#
# Stress axis : x y z
#
# Youngs Moduli (GPa) = 109.22806 109.22806 46.28270
#
# Poissons Ratio (x) = 0.46825 0.05425
# Poissons Ratio (y) = 0.46825 0.05425
# Poissons Ratio (z) = 0.12803 0.12803
#
# Static dielectric constant tensor:
#      x y z
#    x 1.679490 0.000000 0.000000 
#    y 0.000000 1.679490 0.000000 
#    z 0.000000 0.000000 1.703770 
# 
# From -- ./inp_files/9190.got.cif
#   From: 2010.05.17/outbox.cif.g08.bks.cpg/sg134_5_cif.got.tgz:9190.got - 2010.05.20 12:42:49.
