data_PCOD9568272
_publ_section_title
;
Structure prediction by ZEFSAII (Michael W. Deem and Ramdas Pophale) SiO2 
 PCOD9568272
Probable space group: P 42/N N M
;
_chemical_formula_sum "Si O2"
_cell_formula_units_Z 104
_cell_length_a 17.907800
_cell_length_b 17.907800
_cell_length_c 18.008910
_cell_angle_alpha 90.000000
_cell_angle_beta 90.000000
_cell_angle_gamma 90.000000
_cell_volume 5775.264757
_symmetry_space_group_name_H-M "P 42/N N M"
_symmetry_group_IT_number 134
_space_group.IT_coordinate_system_code '2'
_symmetry_cell_setting 'tetragonal'
loop_
_space_group_symop_operation_xyz
x,y,z
1/2-y,x,1/2+z
1/2-x,1/2-y,z
y,1/2-x,1/2+z
x,1/2-y,1/2-z
1/2-x,y,1/2-z
y,x,-z
1/2-y,1/2-x,-z
-x,-y,-z
1/2+y,-x,1/2-z
1/2+x,1/2+y,-z
-y,1/2+x,1/2-z
-x,1/2+y,1/2+z
1/2+x,-y,1/2+z
-y,-x,z
1/2+y,1/2+x,z
loop_
_atom_site_type_symbol
_atom_site_label
_atom_site_fract_x
_atom_site_fract_y
_atom_site_fract_z
Si Si1 0.874387 0.250000 0.750000
Si Si2 0.558852 0.321971 0.889704
Si Si3 0.191824 0.931092 0.818050
Si Si4 0.390646 0.182097 0.568630
Si Si5 0.274693 0.397109 0.833446
Si Si6 0.399288 0.725622 0.529881
Si Si7 0.067437 0.323147 0.027606
O O1 0.819861 0.180140 0.735293
O O2 0.923332 0.231609 0.821107
O O3 0.600942 0.399059 0.876420
O O4 0.471831 0.333233 0.899789
O O5 0.593817 0.283680 0.962613
O O6 0.250000 0.921434 0.750000
O O7 0.115894 0.884106 0.804828
O O8 0.230605 0.899385 0.892332
O O9 0.184611 0.020940 0.830224
O O10 0.372384 0.127616 0.500000
O O11 0.328195 0.164782 0.629806
O O12 0.396221 0.263369 0.530365
O O13 0.250000 0.379189 0.750000
O O14 0.205596 0.408161 0.890659
O O15 0.329526 0.670475 0.523143
O O16 0.478220 0.681872 0.526150
O O17 0.098644 0.401357 0.000000
#
# Coordination Sequence:
#
# PCOD9568272 Si02
#       7
#     8  16  16  16  16  16  16
#     4   9  18  34  54  72 101 144 180 218 265 304
#     4  10  20  34  53  78 107 141 178 216 261 311
#     4  10  20  33  52  79 112 145 173 209 258 313
#     4   9  19  35  54  78 106 135 170 215 265 315
#     4   9  19  36  54  77 106 135 174 215 257 312
#     4  10  20  33  52  79 107 137 179 222 258 312
#     4   9  19  37  55  72 103 139 171 217 270 314
#
# _framework density 18.007832000000001
#
# number of rings (size 3 to 8) (size 9 to 14) (size 15 to 20)
#    0.000    2.538    0.000    2.308    0.000    6.615 
#    5.538    0.769    0.000    0.000    0.000    0.000 
#    0.000    0.000    0.000    0.000    0.000    0.000 
#
# Total GULP energy -579938.490653 kJ/mol
# GULP energy per Si atom -5576.331641 kJ/mol
# Density = 1.796685 g / cm^3
# Si number density = 18.007832 Si / 1000 Ang^3
#
#
#
# Elastic Constant Matrix: (Units=GPa)
#
#
# Indices 1 2 3 4 5 6 
#
# 1 18.7421 13.6072 9.1156 0.0000 0.0000 0.0000
# 2 13.6072 18.7370 9.1147 0.0000 0.0000 0.0000
# 3 9.1156 9.1147 88.7203 0.0000 0.0000 0.0000
# 4 0.0000 0.0000 0.0000 24.0493 0.0000 0.0000
# 5 0.0000 0.0000 0.0000 0.0000 24.0480 0.0000
# 6 0.0000 0.0000 0.0000 0.0000 0.0000 22.2685
#
#
#
# Elastic Compliance Matrix: (Units=1/GPa)
#
#
# Indices 1 2 3 4 5 6 
#
# 1 0.113813 -0.081014 -0.003371 0.000000 0.000000 0.000000
# 2 -0.081014 0.113845 -0.003372 0.000000 0.000000 0.000000
# 3 -0.003371 -0.003372 0.011964 0.000000 0.000000 0.000000
# 4 0.000000 0.000000 0.000000 0.041581 0.000000 0.000000
# 5 0.000000 0.000000 0.000000 0.000000 0.041584 0.000000
# 6 0.000000 0.000000 0.000000 0.000000 0.000000 0.044907
#
#
# Mechanical properties :
#
#
# Convention : Reuss Voigt Hill
#
# Bulk Modulus (GPa) = 15.59850 21.09714 18.34782
# Shear Modulus (GPa) = 8.85619 20.36394 14.61006
#
# Velocity S-wave (km/s) = 2.22005 3.36644 2.85145
# Velocity P-wave (km/s) = 3.90543 5.18185 4.58824
#
# Compressibility (1/GPa) = 0.06410871
#
# Stress axis : x y z
#
# Youngs Moduli (GPa) = 8.78631 8.78388 83.58305
#
# Poissons Ratio (x) = 0.71162 0.28175
# Poissons Ratio (y) = 0.71181 0.28184
# Poissons Ratio (z) = 0.02962 0.02962
#
# Static dielectric constant tensor:
#      x y z
#    x 1.605000 0.000000 0.000000 
#    y 0.000000 1.605000 0.000000 
#    z 0.000000 0.000000 1.601030 
# 
# From -- ./inp_files/7994.got.cif
#   From: 2010.05.17/outbox.cif.g08.bks.cpg/sg134_4_cif.got.tgz:7994.got - 2010.05.20 12:42:49.
