data_PCOD9568659
_publ_section_title
;
Structure prediction by ZEFSAII (Michael W. Deem and Ramdas Pophale) SiO2 
 PCOD9568659
Probable space group: P 42/M B C
;
_chemical_formula_sum "Si O2"
_cell_formula_units_Z 96
_cell_length_a 15.008923
_cell_length_b 15.008923
_cell_length_c 24.686492
_cell_angle_alpha 90.000000
_cell_angle_beta 90.000000
_cell_angle_gamma 90.000000
_cell_volume 5561.070993
_symmetry_space_group_name_H-M "P 42/M B C"
_symmetry_group_IT_number 135
_symmetry_cell_setting 'tetragonal'
loop_
_space_group_symop_operation_xyz
x,y,z
-y,x,1/2+z
-x,-y,z
y,-x,1/2+z
1/2+x,1/2-y,-z
1/2-x,1/2+y,-z
1/2+y,1/2+x,1/2-z
1/2-y,1/2-x,1/2-z
-x,-y,-z
y,-x,1/2-z
x,y,-z
-y,x,1/2-z
1/2-x,1/2+y,z
1/2+x,1/2-y,z
1/2-y,1/2-x,1/2+z
1/2+y,1/2+x,1/2+z
loop_
_atom_site_type_symbol
_atom_site_label
_atom_site_fract_x
_atom_site_fract_y
_atom_site_fract_z
Si Si1 0.809328 0.168608 0.862761
Si Si2 0.853304 0.335935 0.937291
Si Si3 0.281286 0.971960 0.063740
Si Si4 0.624473 0.202523 0.198228
Si Si5 0.467347 0.904443 0.891535
Si Si6 0.586094 0.385833 0.258224
O O1 0.838663 0.251043 0.899541
O O2 0.787860 0.082468 0.899770
O O3 0.717821 0.198039 0.833512
O O4 0.874320 0.139465 0.814319
O O5 0.794188 0.423314 0.922442
O O6 0.954968 0.367928 0.929634
O O7 0.835512 0.314412 0.000000
O O8 0.376601 0.925266 0.076217
O O9 0.261579 0.965327 0.000000
O O10 0.638124 0.138124 0.250000
O O11 0.552293 0.163525 0.156977
O O12 0.606143 0.300780 0.220697
O O13 0.500000 0.000000 0.869306
O O14 0.479930 0.388246 0.268248
#
# Coordination Sequence:
#
# PCOD9568659 Si02
#       6
#    16  16  16  16  16  16
#     4  10  20  33  53  76 104 137 174 222 267 317
#     4  10  19  31  52  79 104 138 177 214 266 323
#     4   9  18  32  50  76 107 136 170 215 263 318
#     4   9  19  34  50  74 104 132 171 219 264 318
#     4   9  17  31  51  75 106 137 169 212 268 316
#     4  10  21  36  54  74  99 138 182 220 267 322
#
# _framework density 17.262861000000001
#
# number of rings (size 3 to 8) (size 9 to 14) (size 15 to 20)
#    0.000    2.500    0.000    2.000    2.333    2.333 
#    0.000    0.000    0.000    0.000    0.000    5.833 
#    0.000    0.000    0.000    0.000    0.000    0.000 
#
# Total GULP energy -535060.039316 kJ/mol
# GULP energy per Si atom -5573.542076 kJ/mol
# Density = 1.722357 g / cm^3
# Si number density = 17.262861 Si / 1000 Ang^3
#
#
#
# Elastic Constant Matrix: (Units=GPa)
#
#
# Indices 1 2 3 4 5 6 
#
# 1 60.7877 21.6516 35.2277 0.0000 0.0000 0.0000
# 2 21.6516 60.7877 35.2277 0.0000 0.0000 0.0000
# 3 35.2277 35.2277 83.0585 0.0000 0.0000 0.0000
# 4 0.0000 0.0000 0.0000 23.1849 0.0000 0.0000
# 5 0.0000 0.0000 0.0000 0.0000 23.1849 0.0000
# 6 0.0000 0.0000 0.0000 0.0000 0.0000 19.5551
#
#
#
# Elastic Compliance Matrix: (Units=1/GPa)
#
#
# Indices 1 2 3 4 5 6 
#
# 1 0.022289 -0.003262 -0.008070 0.000000 0.000000 0.000000
# 2 -0.003262 0.022289 -0.008070 0.000000 0.000000 0.000000
# 3 -0.008070 -0.008070 0.018885 0.000000 0.000000 0.000000
# 4 0.000000 0.000000 0.000000 0.043131 0.000000 0.000000
# 5 0.000000 0.000000 0.000000 0.000000 0.043131 0.000000
# 6 0.000000 0.000000 0.000000 0.000000 0.000000 0.051137
#
#
# Mechanical properties :
#
#
# Convention : Reuss Voigt Hill
#
# Bulk Modulus (GPa) = 40.55259 43.20532 41.87896
# Shear Modulus (GPa) = 20.17034 20.68679 20.42856
#
# Velocity S-wave (km/s) = 3.42193 3.46546 3.44376
# Velocity P-wave (km/s) = 6.25740 6.41052 6.33442
#
# Compressibility (1/GPa) = 0.02465934
#
# Stress axis : x y z
#
# Youngs Moduli (GPa) = 44.86433 44.86433 52.95176
#
# Poissons Ratio (x) = 0.14637 0.42732
# Poissons Ratio (y) = 0.14637 0.42732
# Poissons Ratio (z) = 0.36205 0.36205
#
# Static dielectric constant tensor:
#      x y z
#    x 1.579330 0.000000 0.000000 
#    y 0.000000 1.579330 0.000000 
#    z 0.000000 0.000000 1.570710 
# 
# From -- ./inp_files/5418.got.cif
#   From: 2010.05.17/outbox.cif.g08.bks.cpg/sg135_3_cif.got.tgz:5418.got - 2010.05.20 12:50:20.
