data_PCOD9568804
_publ_section_title
;
Structure prediction by ZEFSAII (Michael W. Deem and Ramdas Pophale) SiO2 
 PCOD9568804
Probable space group: P 42/M B C
;
_chemical_formula_sum "Si O2"
_cell_formula_units_Z 96
_cell_length_a 14.697871
_cell_length_b 14.697871
_cell_length_c 21.654777
_cell_angle_alpha 90.000000
_cell_angle_beta 90.000000
_cell_angle_gamma 90.000000
_cell_volume 4678.025431
_symmetry_space_group_name_H-M "P 42/M B C"
_symmetry_group_IT_number 135
_symmetry_cell_setting 'tetragonal'
loop_
_space_group_symop_operation_xyz
x,y,z
-y,x,1/2+z
-x,-y,z
y,-x,1/2+z
1/2+x,1/2-y,-z
1/2-x,1/2+y,-z
1/2+y,1/2+x,1/2-z
1/2-y,1/2-x,1/2-z
-x,-y,-z
y,-x,1/2-z
x,y,-z
-y,x,1/2-z
1/2-x,1/2+y,z
1/2+x,1/2-y,z
1/2-y,1/2-x,1/2+z
1/2+y,1/2+x,1/2+z
loop_
_atom_site_type_symbol
_atom_site_label
_atom_site_fract_x
_atom_site_fract_y
_atom_site_fract_z
Si Si1 0.910020 0.269790 0.119067
Si Si2 0.540012 0.902703 0.430553
Si Si3 0.720647 0.724039 0.318479
Si Si4 0.268197 0.510205 0.156648
Si Si5 0.578068 0.576173 0.071752
Si Si6 0.819798 0.550852 0.720193
O O1 0.911704 0.351021 0.070442
O O2 0.804820 0.251765 0.135765
O O3 0.952149 0.175311 0.096345
O O4 0.961275 0.312676 0.178696
O O5 0.508491 0.880910 0.500000
O O6 0.514048 0.824970 0.382402
O O7 0.500000 0.000000 0.412177
O O8 0.736274 0.763727 0.250000
O O9 0.614671 0.703754 0.329995
O O10 0.781957 0.634199 0.320919
O O11 0.342454 0.459586 0.115982
O O12 0.247729 0.462770 0.221836
O O13 0.500000 0.500000 0.074408
O O14 0.606782 0.584961 0.000000
O O15 0.914844 0.585157 0.750000
#
# Coordination Sequence:
#
# PCOD9568804 Si02
#       6
#    16  16  16  16  16  16
#     4  11  22  40  63  90 125 167 204 256 318 375
#     4  10  22  40  63  90 120 158 212 263 309 370
#     4  10  20  38  56  88 124 157 202 251 308 374
#     4  11  22  38  61  86 122 161 200 254 313 364
#     4  11  24  42  62  89 125 168 213 253 301 371
#     4  11  22  36  60  90 126 158 200 256 309 372
#
# _framework density 20.521478999999999
#
# number of rings (size 3 to 8) (size 9 to 14) (size 15 to 20)
#    0.000    1.333    1.667    5.000    0.000    0.000 
#    0.000    2.500    0.000    8.000    0.000    0.000 
#    0.000    0.000    0.000    0.000    0.000    0.000 
#
# Total GULP energy -536419.445770 kJ/mol
# GULP energy per Si atom -5587.702560 kJ/mol
# Density = 2.047477 g / cm^3
# Si number density = 20.521479 Si / 1000 Ang^3
#
#
#
# Elastic Constant Matrix: (Units=GPa)
#
#
# Indices 1 2 3 4 5 6 
#
# 1 67.6987 17.9807 10.1951 0.0000 0.0000 0.0000
# 2 17.9807 67.6989 10.1948 0.0000 0.0000 0.0000
# 3 10.1951 10.1948 66.9685 0.0000 0.0000 0.0000
# 4 0.0000 0.0000 0.0000 3.2752 0.0000 0.0000
# 5 0.0000 0.0000 0.0000 0.0000 3.2687 0.0000
# 6 0.0000 0.0000 0.0000 0.0000 0.0000 24.1860
#
#
#
# Elastic Compliance Matrix: (Units=1/GPa)
#
#
# Indices 1 2 3 4 5 6 
#
# 1 0.016112 -0.004002 -0.001844 0.000000 0.000000 0.000000
# 2 -0.004002 0.016112 -0.001844 0.000000 0.000000 0.000000
# 3 -0.001844 -0.001844 0.015494 0.000000 0.000000 0.000000
# 4 0.000000 0.000000 0.000000 0.305328 0.000000 0.000000
# 5 0.000000 0.000000 0.000000 0.000000 0.305930 0.000000
# 6 0.000000 0.000000 0.000000 0.000000 0.000000 0.041346
#
#
# Mechanical properties :
#
#
# Convention : Reuss Voigt Hill
#
# Bulk Modulus (GPa) = 30.92179 31.01191 30.96685
# Shear Modulus (GPa) = 6.88251 17.07901 11.98076
#
# Velocity S-wave (km/s) = 1.83333 2.88800 2.41885
# Velocity P-wave (km/s) = 4.42518 5.12499 4.78788
#
# Compressibility (1/GPa) = 0.03233965
#
# Stress axis : x y z
#
# Youngs Moduli (GPa) = 62.06632 62.06663 64.54228
#
# Poissons Ratio (x) = 0.24837 0.11899
# Poissons Ratio (y) = 0.24837 0.11899
# Poissons Ratio (z) = 0.11443 0.11442
#
# Static dielectric constant tensor:
#      x y z
#    x 1.736220 0.000000 0.000000 
#    y 0.000000 1.736220 0.000000 
#    z 0.000000 0.000000 1.696450 
# 
# From -- ./inp_files/5469.got.cif
#   From: 2010.05.17/outbox.cif.g08.bks.cpg/sg135_3_cif.got.tgz:5469.got - 2010.05.20 12:50:20.
