data_PCOD9568618
_publ_section_title
;
Structure prediction by ZEFSAII (Michael W. Deem and Ramdas Pophale) SiO2 
 PCOD9568618
Probable space group: P 42/M B C
;
_chemical_formula_sum "Si O2"
_cell_formula_units_Z 60
_cell_length_a 18.097013
_cell_length_b 18.097013
_cell_length_c 9.075859
_cell_angle_alpha 90.000000
_cell_angle_beta 90.000000
_cell_angle_gamma 90.000000
_cell_volume 2972.360881
_symmetry_space_group_name_H-M "P 42/M B C"
_symmetry_group_IT_number 135
_symmetry_cell_setting 'tetragonal'
loop_
_space_group_symop_operation_xyz
x,y,z
-y,x,1/2+z
-x,-y,z
y,-x,1/2+z
1/2+x,1/2-y,-z
1/2-x,1/2+y,-z
1/2+y,1/2+x,1/2-z
1/2-y,1/2-x,1/2-z
-x,-y,-z
y,-x,1/2-z
x,y,-z
-y,x,1/2-z
1/2-x,1/2+y,z
1/2+x,1/2-y,z
1/2-y,1/2-x,1/2+z
1/2+y,1/2+x,1/2+z
loop_
_atom_site_type_symbol
_atom_site_label
_atom_site_fract_x
_atom_site_fract_y
_atom_site_fract_z
Si Si1 0.364409 0.135592 0.250000
Si Si2 0.773277 0.412718 0.000000
Si Si3 0.000000 0.000000 0.750000
Si Si4 0.363496 0.940467 0.000000
Si Si5 0.387301 0.734871 0.000000
Si Si6 0.396084 0.561947 0.000000
Si Si7 0.988398 0.361814 0.000000
Si Si8 0.827386 0.672615 0.250000
O O1 0.367070 0.206852 0.354573
O O2 0.363497 0.064103 0.357028
O O3 0.834382 0.477532 0.000000
O O4 0.692133 0.445878 0.000000
O O5 0.026264 0.934222 0.642935
O O6 0.332352 0.897741 0.858114
O O7 0.451331 0.927438 0.000000
O O8 0.339390 0.758124 0.856897
O O9 0.409138 0.650097 0.000000
O O10 0.458857 0.789094 0.000000
#
# Coordination Sequence:
#
# PCOD9568618 Si02
#       8
#     8   8   4   8   8   8   8   8
#     4  10  22  36  58  97 140 175 220 238 316 380
#     4  11  23  38  60  93 134 176 202 265 308 374
#     4  10  28  54  68 106 104 150 228 278 348 414
#     4  10  18  32  57  89 129 179 213 246 295 354
#     4  10  20  39  65  90 128 175 198 267 307 375
#     4  11  27  47  75  92 122 154 216 278 344 388
#     4   9  20  35  57  94 131 177 215 249 296 386
#     4   8  18  33  58  96 122 159 226 232 302 380
#
# _framework density 20.185974000000002
#
# number of rings (size 3 to 8) (size 9 to 14) (size 15 to 20)
#    0.000    2.400    0.000    3.200    7.467    4.267 
#    0.000    0.000    0.000    0.000    0.000    0.000 
#    0.000    0.000    0.000    0.000    0.000    0.000 
#
# Total GULP energy -335088.386323 kJ/mol
# GULP energy per Si atom -5584.806439 kJ/mol
# Density = 2.014003 g / cm^3
# Si number density = 20.185974 Si / 1000 Ang^3
#
#
#
# Elastic Constant Matrix: (Units=GPa)
#
#
# Indices 1 2 3 4 5 6 
#
# 1 62.4435 46.5688 40.5545 0.0000 0.0000 0.0000
# 2 46.5688 62.4470 40.5551 0.0000 0.0000 0.0000
# 3 40.5545 40.5551 165.1028 0.0000 0.0000 0.0000
# 4 0.0000 0.0000 0.0000 -31.7343 0.0000 0.0000
# 5 0.0000 0.0000 0.0000 0.0000 -31.7480 0.0000
# 6 0.0000 0.0000 0.0000 0.0000 0.0000 32.3149
#
#
#
# Elastic Compliance Matrix: (Units=1/GPa)
#
#
# Indices 1 2 3 4 5 6 
#
# 1 0.037107 -0.025881 -0.002757 0.000000 0.000000 0.000000
# 2 -0.025881 0.037104 -0.002757 0.000000 0.000000 0.000000
# 3 -0.002757 -0.002757 0.007411 0.000000 0.000000 0.000000
# 4 0.000000 0.000000 0.000000 -0.031512 0.000000 0.000000
# 5 0.000000 0.000000 0.000000 0.000000 -0.031498 0.000000
# 6 0.000000 0.000000 0.000000 0.000000 0.000000 0.030945
#
#
# Mechanical properties :
#
#
# Convention : Reuss Voigt Hill
#
# Bulk Modulus (GPa) = 53.10153 60.59446 56.84799
# Shear Modulus (GPa) = 42.14940 4.58752 23.36846
#
# Velocity S-wave (km/s) = 4.57448 1.50916 3.40613
# Velocity P-wave (km/s) = 7.36644 5.75500 6.61001
#
# Compressibility (1/GPa) = 0.01883185
#
# Stress axis : x y z
#
# Youngs Moduli (GPa) = 26.94939 26.95104 134.92886
#
# Poissons Ratio (x) = 0.69752 0.37204
# Poissons Ratio (y) = 0.69748 0.37199
# Poissons Ratio (z) = 0.07431 0.07430
#
# Static dielectric constant tensor:
#      x y z
#    x 1.715500 0.000000 0.000000 
#    y 0.000000 1.715500 0.000000 
#    z 0.000000 0.000000 1.941940 
# 
# From -- ./inp_files/833.got.cif
#   From: 2010.05.17/outbox.cif.g08.bks.cpg/sg135_1_cif.got.tgz:833.got - 2010.05.20 12:50:20.
