data_PCOD9568050
_publ_section_title
;
Structure prediction by ZEFSAII (Michael W. Deem and Ramdas Pophale) SiO2 
 PCOD9568050
Probable space group: P 42/N B C
;
_chemical_formula_sum "Si O2"
_cell_formula_units_Z 60
_cell_length_a 16.711741
_cell_length_b 16.711741
_cell_length_c 9.708322
_cell_angle_alpha 90.000000
_cell_angle_beta 90.000000
_cell_angle_gamma 90.000000
_cell_volume 2711.362374
_symmetry_space_group_name_H-M "P 42/N B C"
_symmetry_group_IT_number 133
_space_group.IT_coordinate_system_code '2'
_symmetry_cell_setting 'tetragonal'
loop_
_space_group_symop_operation_xyz
x,y,z
1/2-y,x,1/2+z
1/2-x,1/2-y,z
y,1/2-x,1/2+z
x,1/2-y,-z
1/2-x,y,-z
y,x,1/2-z
1/2-y,1/2-x,1/2-z
-x,-y,-z
1/2+y,-x,1/2-z
1/2+x,1/2+y,-z
-y,1/2+x,1/2-z
-x,1/2+y,z
1/2+x,-y,z
-y,-x,1/2+z
1/2+y,1/2+x,1/2+z
loop_
_atom_site_type_symbol
_atom_site_label
_atom_site_fract_x
_atom_site_fract_y
_atom_site_fract_z
Si Si1 0.562640 0.935557 0.581468
Si Si2 0.159428 0.931982 0.027257
Si Si3 0.191043 0.586353 0.669444
Si Si4 0.954130 0.750000 0.000000
Si Si5 0.250000 0.750000 0.750000
O O1 0.556768 0.943233 0.750000
O O2 0.517952 0.854039 0.538328
O O3 0.655823 0.925821 0.526857
O O4 0.500000 0.000000 0.500000
O O5 0.146102 0.928047 0.188720
O O6 0.250000 0.904625 0.000000
O O7 0.102573 0.870981 0.949953
O O8 0.240872 0.509115 0.634573
O O9 0.245461 0.665390 0.674566
#
# Coordination Sequence:
#
# PCOD9568050 Si02
#       5
#    16  16  16   8   4
#     4  12  27  49  75 111 152 202 258 318 389 470
#     4  12  25  43  68 102 142 190 242 301 380 451
#     4  12  25  40  66 106 146 192 237 303 386 463
#     4  12  28  45  75 102 150 196 260 312 380 465
#     4  12  24  38  60 106 160 178 236 302 384 482
#
# _framework density 22.129096000000001
#
# number of rings (size 3 to 8) (size 9 to 14) (size 15 to 20)
#    0.000    0.000    5.333    4.800    0.000    1.067 
#    0.000    0.667    0.000    1.600    0.000    0.000 
#    0.000    0.000    0.000    0.000    0.000    0.000 
#
# Total GULP energy -334035.403473 kJ/mol
# GULP energy per Si atom -5567.256725 kJ/mol
# Density = 2.207873 g / cm^3
# Si number density = 22.129096 Si / 1000 Ang^3
#
#
#
# Elastic Constant Matrix: (Units=GPa)
#
#
# Indices 1 2 3 4 5 6 
#
# 1 63.6818 1.6080 14.4900 0.0000 0.0000 0.0000
# 2 1.6080 63.6818 14.4901 0.0000 0.0000 0.0000
# 3 14.4900 14.4901 162.8512 0.0000 0.0000 0.0000
# 4 0.0000 0.0000 0.0000 24.0929 0.0000 0.0000
# 5 0.0000 0.0000 0.0000 0.0000 24.0931 0.0000
# 6 0.0000 0.0000 0.0000 0.0000 0.0000 16.8569
#
#
#
# Elastic Compliance Matrix: (Units=1/GPa)
#
#
# Indices 1 2 3 4 5 6 
#
# 1 0.016028 -0.000082 -0.001419 0.000000 0.000000 0.000000
# 2 -0.000082 0.016028 -0.001419 0.000000 0.000000 0.000000
# 3 -0.001419 -0.001419 0.006393 0.000000 0.000000 0.000000
# 4 0.000000 0.000000 0.000000 0.041506 0.000000 0.000000
# 5 0.000000 0.000000 0.000000 0.000000 0.041506 0.000000
# 6 0.000000 0.000000 0.000000 0.000000 0.000000 0.059323
#
#
# Mechanical properties :
#
#
# Convention : Reuss Voigt Hill
#
# Bulk Modulus (GPa) = 30.66551 39.04344 34.85447
# Shear Modulus (GPa) = 25.31738 30.31702 27.81720
#
# Velocity S-wave (km/s) = 3.38609 3.70538 3.54933
# Velocity P-wave (km/s) = 5.40140 5.99902 5.70803
#
# Compressibility (1/GPa) = 0.03260993
#
# Stress axis : x y z
#
# Youngs Moduli (GPa) = 62.39093 62.39086 156.41950
#
# Poissons Ratio (x) = 0.00511 0.22193
# Poissons Ratio (y) = 0.00511 0.22193
# Poissons Ratio (z) = 0.08852 0.08852
#
# Static dielectric constant tensor:
#      x y z
#    x 1.936900 0.000000 0.000000 
#    y 0.000000 1.936900 0.000000 
#    z 0.000000 0.000000 2.287150 
# 
# From -- ./inp_files/1340.got.cif
#   From: 2010.05.17/outbox.cif.g08.bks.cpg/sg133_1_cif.got.tgz:1340.got - 2010.05.20 12:37:36.
