data_PCOD9568792
_publ_section_title
;
Structure prediction by ZEFSAII (Michael W. Deem and Ramdas Pophale) SiO2 
 PCOD9568792
Probable space group: P 42/M B C
;
_chemical_formula_sum "Si O2"
_cell_formula_units_Z 96
_cell_length_a 24.498599
_cell_length_b 24.498599
_cell_length_c 8.401256
_cell_angle_alpha 90.000000
_cell_angle_beta 90.000000
_cell_angle_gamma 90.000000
_cell_volume 5042.277193
_symmetry_space_group_name_H-M "P 42/M B C"
_symmetry_group_IT_number 135
_symmetry_cell_setting 'tetragonal'
loop_
_space_group_symop_operation_xyz
x,y,z
-y,x,1/2+z
-x,-y,z
y,-x,1/2+z
1/2+x,1/2-y,-z
1/2-x,1/2+y,-z
1/2+y,1/2+x,1/2-z
1/2-y,1/2-x,1/2-z
-x,-y,-z
y,-x,1/2-z
x,y,-z
-y,x,1/2-z
1/2-x,1/2+y,z
1/2+x,1/2-y,z
1/2-y,1/2-x,1/2+z
1/2+y,1/2+x,1/2+z
loop_
_atom_site_type_symbol
_atom_site_label
_atom_site_fract_x
_atom_site_fract_y
_atom_site_fract_z
Si Si1 0.734329 0.569040 0.690040
Si Si2 0.631496 0.359507 0.689848
Si Si3 0.936580 0.350177 0.808836
Si Si4 0.443922 0.856809 0.689403
Si Si5 0.929197 0.035971 0.678226
Si Si6 0.444772 0.275462 0.806827
O O1 0.727418 0.571448 0.500000
O O2 0.703565 0.620952 0.766878
O O3 0.798199 0.569252 0.732369
O O4 0.713811 0.507851 0.744616
O O5 0.627554 0.365598 0.500000
O O6 0.579467 0.384894 0.777390
O O7 0.682706 0.396968 0.743110
O O8 0.887194 0.387194 0.750000
O O9 0.930880 0.286584 0.760024
O O10 0.994049 0.370446 0.738939
O O11 0.939606 0.351675 0.000000
O O12 0.402345 0.902345 0.750000
O O13 0.440477 0.851692 0.500000
O O14 0.921882 0.014307 0.500000
O O15 0.986804 0.066714 0.698223
O O16 0.446175 0.277558 0.000000
#
# Coordination Sequence:
#
# PCOD9568792 Si02
#       6
#    16  16  16  16  16  16
#     4  10  20  37  57  81 113 152 192 237 286 335
#     4  11  20  33  53  78 106 145 192 236 280 334
#     4  10  20  38  61  88 118 150 184 226 277 335
#     4  11  22  39  62  89 117 149 184 226 278 338
#     4  11  21  33  47  68  98 134 177 233 293 348
#     4   8  18  35  55  76 108 148 188 232 281 329
#
# _framework density 19.039017000000001
#
# number of rings (size 3 to 8) (size 9 to 14) (size 15 to 20)
#    0.000    1.833    0.000    7.000    0.000    1.667 
#    0.000   11.667    0.000    2.000    0.000    0.000 
#    0.000    0.000    0.000    0.000    0.000    0.000 
#
# Total GULP energy -535610.121224 kJ/mol
# GULP energy per Si atom -5579.272096 kJ/mol
# Density = 1.899568 g / cm^3
# Si number density = 19.039017 Si / 1000 Ang^3
#
#
#
# Elastic Constant Matrix: (Units=GPa)
#
#
# Indices 1 2 3 4 5 6 
#
# 1 81.7300 87.5662 13.6922 0.0000 0.0000 0.0000
# 2 87.5662 81.7300 13.6922 0.0000 0.0000 0.0000
# 3 13.6922 13.6922 66.2305 0.0000 0.0000 0.0000
# 4 0.0000 0.0000 0.0000 26.3902 0.0000 0.0000
# 5 0.0000 0.0000 0.0000 0.0000 26.3902 0.0000
# 6 0.0000 0.0000 0.0000 0.0000 0.0000 40.5653
#
#
#
# Elastic Compliance Matrix: (Units=1/GPa)
#
#
# Indices 1 2 3 4 5 6 
#
# 1 -0.082617 0.088728 -0.001263 0.000000 0.000000 0.000000
# 2 0.088728 -0.082617 -0.001263 0.000000 0.000000 0.000000
# 3 -0.001263 -0.001263 0.015621 0.000000 0.000000 0.000000
# 4 0.000000 0.000000 0.000000 0.037893 0.000000 0.000000
# 5 0.000000 0.000000 0.000000 0.000000 0.037893 0.000000
# 6 0.000000 0.000000 0.000000 0.000000 0.000000 0.024652
#
#
# Mechanical properties :
#
#
# Convention : Reuss Voigt Hill
#
# Bulk Modulus (GPa) = 43.87907 51.06575 47.47241
# Shear Modulus (GPa) = -23.36639 26.31846 1.47604
#
# Velocity S-wave (km/s) = -3.50707 3.72202 0.88145
# Velocity P-wave (km/s) = 2.58797 6.73432 5.10141
#
# Compressibility (1/GPa) = 0.02278991
#
# Stress axis : x y z
#
# Youngs Moduli (GPa) = -12.10401 -12.10401 64.01577
#
# Poissons Ratio (x) = 1.07397 0.08088
# Poissons Ratio (y) = 1.07397 0.08088
# Poissons Ratio (z) = -0.01529 -0.01529
#
# Static dielectric constant tensor:
#      x y z
#    x 1.698260 0.000000 0.000000 
#    y 0.000000 1.698260 0.000000 
#    z 0.000000 0.000000 1.660100 
# 
# From -- ./inp_files/1243.got.cif
#   From: 2010.05.17/outbox.cif.g08.bks.cpg/sg135_1_cif.got.tgz:1243.got - 2010.05.20 12:50:20.
