data_PCOD9569252
_publ_section_title
;
Structure prediction by ZEFSAII (Michael W. Deem and Ramdas Pophale) SiO2 
 PCOD9569252
Probable space group: P 42/M N M
;
_chemical_formula_sum "Si O2"
_cell_formula_units_Z 104
_cell_length_a 26.380411
_cell_length_b 26.380411
_cell_length_c 7.542297
_cell_angle_alpha 90.000000
_cell_angle_beta 90.000000
_cell_angle_gamma 90.000000
_cell_volume 5248.881220
_symmetry_space_group_name_H-M "P 42/M N M"
_symmetry_group_IT_number 136
_symmetry_cell_setting 'tetragonal'
loop_
_space_group_symop_operation_xyz
x,y,z
1/2-y,1/2+x,1/2+z
-x,-y,z
1/2+y,1/2-x,1/2+z
1/2+x,1/2-y,1/2-z
1/2-x,1/2+y,1/2-z
y,x,-z
-y,-x,-z
-x,-y,-z
1/2+y,1/2-x,1/2-z
x,y,-z
1/2-y,1/2+x,1/2-z
1/2-x,1/2+y,1/2+z
1/2+x,1/2-y,1/2+z
-y,-x,z
y,x,z
loop_
_atom_site_type_symbol
_atom_site_label
_atom_site_fract_x
_atom_site_fract_y
_atom_site_fract_z
Si Si1 0.014682 0.263240 0.786774
Si Si2 0.843876 0.026386 0.204669
Si Si3 0.838750 0.406439 0.300107
Si Si4 0.592534 0.815244 0.213044
Si Si5 0.541908 0.541908 0.282713
Si Si6 0.130319 0.792062 0.285739
Si Si7 0.519638 0.078582 0.203633
O O1 0.002530 0.206076 0.719410
O O2 0.066633 0.289131 0.718375
O O3 0.965538 0.299581 0.755470
O O4 0.019177 0.259969 0.000000
O O5 0.901195 0.026179 0.278685
O O6 0.825722 0.084652 0.212048
O O7 0.848112 0.009879 0.000000
O O8 0.825397 0.389669 0.500000
O O9 0.874871 0.363032 0.217431
O O10 0.876642 0.454054 0.305739
O O11 0.622981 0.765316 0.269377
O O12 0.592311 0.821014 0.000000
O O13 0.500000 0.500000 0.235057
O O14 0.544285 0.544285 0.500000
O O15 0.125588 0.793448 0.500000
O O16 0.182893 0.817108 0.234752
O O17 0.468577 0.058229 0.289678
O O18 0.509492 0.092625 0.000000
#
# Coordination Sequence:
#
# PCOD9569252 Si02
#       7
#    16  16  16  16   8  16  16
#     4   9  18  30  45  64  87 116 150 190 230 269
#     4   9  16  28  46  68  92 119 150 180 219 268
#     4  10  19  31  44  60  86 117 149 188 232 275
#     4   9  18  30  44  63  86 114 148 185 229 279
#     4   9  16  26  45  73 101 125 149 181 221 269
#     4   9  16  27  45  67  90 114 142 181 227 271
#     4  11  21  32  45  61  82 111 149 190 233 276
#
# _framework density 19.813745999999998
#
# number of rings (size 3 to 8) (size 9 to 14) (size 15 to 20)
#    0.000    2.538    0.769    2.769    0.000    3.692 
#    0.000    0.000    0.000    1.846    0.000    6.462 
#    0.000    0.000    0.000    7.846    0.000    9.846 
#
# Total GULP energy -579166.527728 kJ/mol
# GULP energy per Si atom -5568.908920 kJ/mol
# Density = 1.976865 g / cm^3
# Si number density = 19.813746 Si / 1000 Ang^3
#
#
#
# Elastic Constant Matrix: (Units=GPa)
#
#
# Indices 1 2 3 4 5 6 
#
# 1 98.0163 93.3064 1.6152 0.0000 0.0000 0.0000
# 2 93.3064 98.0163 1.6152 0.0000 0.0000 0.0000
# 3 1.6152 1.6152 59.7077 0.0000 0.0000 0.0000
# 4 0.0000 0.0000 0.0000 5.3333 0.0000 0.0000
# 5 0.0000 0.0000 0.0000 0.0000 5.3333 0.0000
# 6 0.0000 0.0000 0.0000 0.0000 0.0000 29.7402
#
#
#
# Elastic Compliance Matrix: (Units=1/GPa)
#
#
# Indices 1 2 3 4 5 6 
#
# 1 0.108774 -0.103545 -0.000141 0.000000 0.000000 0.000000
# 2 -0.103545 0.108774 -0.000141 0.000000 0.000000 0.000000
# 3 -0.000141 -0.000141 0.016756 0.000000 0.000000 0.000000
# 4 0.000000 0.000000 0.000000 0.187502 0.000000 0.000000
# 5 0.000000 0.000000 0.000000 0.000000 0.187502 0.000000
# 6 0.000000 0.000000 0.000000 0.000000 0.000000 0.033625
#
#
# Mechanical properties :
#
#
# Convention : Reuss Voigt Hill
#
# Bulk Modulus (GPa) = 37.52572 49.86823 43.69697
# Shear Modulus (GPa) = 5.81752 18.69491 12.25622
#
# Velocity S-wave (km/s) = 1.71537 3.07503 2.48981
# Velocity P-wave (km/s) = 4.78578 6.15068 5.51065
#
# Compressibility (1/GPa) = 0.02664839
#
# Stress axis : x y z
#
# Youngs Moduli (GPa) = 9.19335 9.19335 59.68046
#
# Poissons Ratio (x) = 0.95193 0.00844
# Poissons Ratio (y) = 0.95193 0.00844
# Poissons Ratio (z) = 0.00130 0.00130
#
# Static dielectric constant tensor:
#      x y z
#    x 1.716460 0.000000 0.000000 
#    y 0.000000 1.716460 0.000000 
#    z 0.000000 0.000000 1.783520 
# 
# From -- ./inp_files/2246.got.cif
#   From: 2010.05.17/outbox.cif.g08.bks.cpg/sg136_2_cif.got.tgz:2246.got - 2010.05.20 12:54:53.
