data_PCOD9569596
_publ_section_title
;
Structure prediction by ZEFSAII (Michael W. Deem and Ramdas Pophale) SiO2 
 PCOD9569596
Probable space group: P 42/M N M
;
_chemical_formula_sum "Si O2"
_cell_formula_units_Z 96
_cell_length_a 24.093076
_cell_length_b 24.093076
_cell_length_c 8.884526
_cell_angle_alpha 90.000000
_cell_angle_beta 90.000000
_cell_angle_gamma 90.000000
_cell_volume 5157.256879
_symmetry_space_group_name_H-M "P 42/M N M"
_symmetry_group_IT_number 136
_symmetry_cell_setting 'tetragonal'
loop_
_space_group_symop_operation_xyz
x,y,z
1/2-y,1/2+x,1/2+z
-x,-y,z
1/2+y,1/2-x,1/2+z
1/2+x,1/2-y,1/2-z
1/2-x,1/2+y,1/2-z
y,x,-z
-y,-x,-z
-x,-y,-z
1/2+y,1/2-x,1/2-z
x,y,-z
1/2-y,1/2+x,1/2-z
1/2-x,1/2+y,1/2+z
1/2+x,1/2-y,1/2+z
-y,-x,z
y,x,z
loop_
_atom_site_type_symbol
_atom_site_label
_atom_site_fract_x
_atom_site_fract_y
_atom_site_fract_z
Si Si1 0.332039 0.206722 0.824279
Si Si2 0.729523 0.361778 0.822162
Si Si3 0.978921 0.644358 0.167605
Si Si4 0.191081 0.896374 0.819126
Si Si5 0.401089 0.119804 0.330442
Si Si6 0.483309 0.726357 0.673984
O O1 0.278795 0.175081 0.752772
O O2 0.354507 0.263005 0.749041
O O3 0.381764 0.164053 0.791145
O O4 0.321800 0.215297 0.000000
O O5 0.673361 0.326640 0.800046
O O6 0.722823 0.423866 0.756509
O O7 0.741329 0.365312 0.000000
O O8 0.935191 0.632720 0.295834
O O9 0.033931 0.608380 0.183257
O O10 0.997210 0.708147 0.172394
O O11 0.954371 0.635002 0.000000
O O12 0.131595 0.868406 0.788653
O O13 0.197590 0.960311 0.766092
O O14 0.199781 0.897478 0.000000
O O15 0.390750 0.140818 0.500000
O O16 0.474856 0.708726 0.500000
#
# Coordination Sequence:
#
# PCOD9569596 Si02
#       6
#    16  16  16  16  16  16
#     4  12  23  35  56  86 119 151 187 234 284 334
#     4  11  24  40  59  85 116 151 191 232 281 340
#     4  10  21  37  55  79 110 145 190 240 282 325
#     4  10  21  39  62  87 118 153 188 229 280 339
#     4  11  22  37  57  78 109 150 193 236 281 334
#     4  10  20  37  60  86 115 147 185 230 281 336
#
# _framework density 18.614547999999999
#
# number of rings (size 3 to 8) (size 9 to 14) (size 15 to 20)
#    0.000    1.333    3.333    3.000    0.000    6.000 
#    0.000    1.667    0.000    0.500    0.000    3.500 
#    0.000    0.000    0.000    0.000    0.000    0.000 
#
# Total GULP energy -535477.886838 kJ/mol
# GULP energy per Si atom -5577.894655 kJ/mol
# Density = 1.857218 g / cm^3
# Si number density = 18.614548 Si / 1000 Ang^3
#
#
#
# Elastic Constant Matrix: (Units=GPa)
#
#
# Indices 1 2 3 4 5 6 
#
# 1 23.1573 84.9522 31.8264 0.0000 0.0000 0.0000
# 2 84.9522 23.1573 31.8264 0.0000 0.0000 0.0000
# 3 31.8264 31.8264 62.9849 0.0000 0.0000 0.0000
# 4 0.0000 0.0000 0.0000 -5.1388 0.0000 0.0000
# 5 0.0000 0.0000 0.0000 0.0000 -5.1388 0.0000
# 6 0.0000 0.0000 0.0000 0.0000 0.0000 27.6663
#
#
#
# Elastic Compliance Matrix: (Units=1/GPa)
#
#
# Indices 1 2 3 4 5 6 
#
# 1 -0.001508 0.014675 -0.006653 0.000000 0.000000 0.000000
# 2 0.014675 -0.001508 -0.006653 0.000000 0.000000 0.000000
# 3 -0.006653 -0.006653 0.022601 0.000000 0.000000 0.000000
# 4 0.000000 0.000000 0.000000 -0.194596 0.000000 0.000000
# 5 0.000000 0.000000 0.000000 0.000000 -0.194596 0.000000
# 6 0.000000 0.000000 0.000000 0.000000 0.000000 0.036145
#
#
# Mechanical properties :
#
#
# Convention : Reuss Voigt Hill
#
# Bulk Modulus (GPa) = 44.79969 45.16774 44.98371
# Shear Modulus (GPa) = -15.20880 0.85735 -7.17572
#
# Velocity S-wave (km/s) = -2.86149 0.67940 -1.96552
# Velocity P-wave (km/s) = 3.63343 4.99328 4.36662
#
# Compressibility (1/GPa) = 0.02232158
#
# Stress axis : x y z
#
# Youngs Moduli (GPa) = -663.29588 -663.29588 44.24607
#
# Poissons Ratio (x) = 9.73384 0.29439
# Poissons Ratio (y) = 9.73384 0.29439
# Poissons Ratio (z) = -4.41323 -4.41323
#
# Static dielectric constant tensor:
#      x y z
#    x 1.667300 0.000000 0.000000 
#    y 0.000000 1.667300 0.000000 
#    z 0.000000 0.000000 1.653840 
# 
# From -- ./inp_files/2017.got.cif
#   From: 2010.05.17/outbox.cif.g08.bks.cpg/sg136_2_cif.got.tgz:2017.got - 2010.05.20 12:54:53.
