data_PCOD9569217
_publ_section_title
;
Structure prediction by ZEFSAII (Michael W. Deem and Ramdas Pophale) SiO2 
 PCOD9569217
Probable space group: P 42/M N M
;
_chemical_formula_sum "Si O2"
_cell_formula_units_Z 58
_cell_length_a 16.865063
_cell_length_b 16.865063
_cell_length_c 8.385834
_cell_angle_alpha 90.000000
_cell_angle_beta 90.000000
_cell_angle_gamma 90.000000
_cell_volume 2385.185700
_symmetry_space_group_name_H-M "P 42/M N M"
_symmetry_group_IT_number 136
_symmetry_cell_setting 'tetragonal'
loop_
_space_group_symop_operation_xyz
x,y,z
1/2-y,1/2+x,1/2+z
-x,-y,z
1/2+y,1/2-x,1/2+z
1/2+x,1/2-y,1/2-z
1/2-x,1/2+y,1/2-z
y,x,-z
-y,-x,-z
-x,-y,-z
1/2+y,1/2-x,1/2-z
x,y,-z
1/2-y,1/2+x,1/2-z
1/2-x,1/2+y,1/2+z
1/2+x,1/2-y,1/2+z
-y,-x,z
y,x,z
loop_
_atom_site_type_symbol
_atom_site_label
_atom_site_fract_x
_atom_site_fract_y
_atom_site_fract_z
Si Si1 0.554503 0.687783 0.681065
Si Si2 0.000000 0.000000 0.500000
Si Si3 0.676774 0.804285 0.185392
Si Si4 0.918635 0.918635 0.809324
Si Si5 0.103288 0.550839 0.823301
O O1 0.569094 0.715125 0.500000
O O2 0.604936 0.604936 0.700112
O O3 0.597598 0.749993 0.794711
O O4 0.461726 0.667326 0.698194
O O5 0.047087 0.047087 0.643718
O O6 0.748821 0.748821 0.239604
O O7 0.667140 0.883503 0.284404
O O8 0.687341 0.822966 0.000000
O O9 0.938992 0.938992 0.000000
O O10 0.096248 0.480724 0.696498
O O11 0.111359 0.517669 0.000000
#
# Coordination Sequence:
#
# PCOD9569217 Si02
#       5
#    16   2  16   8  16
#     4   9  16  28  44  67 104 146 191 241 292 345
#     4  12  18  20  44  58  92 136 194 240 316 330
#     4  10  21  35  57  90 126 161 203 251 306 376
#     4  10  19  27  39  64  97 138 194 249 293 356
#     4  11  22  40  67  95 125 160 207 260 315 370
#
# _framework density 24.316763999999999
#
# number of rings (size 3 to 8) (size 9 to 14) (size 15 to 20)
#    0.000    1.931    1.379    4.345    1.931    1.655 
#    0.000    0.000    3.034    0.000    0.000    0.000 
#    0.000    0.000    0.000    0.000    0.000    0.000 
#
# Total GULP energy -322954.184010 kJ/mol
# GULP energy per Si atom -5568.175586 kJ/mol
# Density = 2.426142 g / cm^3
# Si number density = 24.316764 Si / 1000 Ang^3
#
#
#
# Elastic Constant Matrix: (Units=GPa)
#
#
# Indices 1 2 3 4 5 6 
#
# 1 39.1104 51.4355 12.8835 0.0000 0.0000 0.0000
# 2 51.4355 39.1104 12.8835 0.0000 0.0000 0.0000
# 3 12.8835 12.8835 120.5682 0.0000 0.0000 0.0000
# 4 0.0000 0.0000 0.0000 23.1639 0.0000 0.0000
# 5 0.0000 0.0000 0.0000 0.0000 23.1639 0.0000
# 6 0.0000 0.0000 0.0000 0.0000 0.0000 7.4190
#
#
#
# Elastic Compliance Matrix: (Units=1/GPa)
#
#
# Indices 1 2 3 4 5 6 
#
# 1 -0.034872 0.046263 -0.001217 0.000000 0.000000 0.000000
# 2 0.046263 -0.034872 -0.001217 0.000000 0.000000 0.000000
# 3 -0.001217 -0.001217 0.008554 0.000000 0.000000 0.000000
# 4 0.000000 0.000000 0.000000 0.043171 0.000000 0.000000
# 5 0.000000 0.000000 0.000000 0.000000 0.043171 0.000000
# 6 0.000000 0.000000 0.000000 0.000000 0.000000 0.134790
#
#
# Mechanical properties :
#
#
# Convention : Reuss Voigt Hill
#
# Bulk Modulus (GPa) = 37.78352 39.24378 38.51365
# Shear Modulus (GPa) = 61.64725 18.85511 40.25118
#
# Velocity S-wave (km/s) = 5.04051 2.78761 4.07293
# Velocity P-wave (km/s) = 7.03189 5.15118 6.16369
#
# Compressibility (1/GPa) = 0.02646657
#
# Stress axis : x y z
#
# Youngs Moduli (GPa) = -28.67621 -28.67621 116.90191
#
# Poissons Ratio (x) = 1.32664 0.14229
# Poissons Ratio (y) = 1.32664 0.14229
# Poissons Ratio (z) = -0.03490 -0.03490
#
# Static dielectric constant tensor:
#      x y z
#    x 2.012700 0.000000 0.000000 
#    y 0.000000 2.012700 0.000000 
#    z 0.000000 0.000000 1.857610 
# 
# From -- ./inp_files/1181.got.cif
#   From: 2010.05.17/outbox.cif.g08.bks.cpg/sg136_1_cif.got.tgz:1181.got - 2010.05.20 12:54:53.
