data_PCOD9569930
_publ_section_title
;
Structure prediction by ZEFSAII (Michael W. Deem and Ramdas Pophale) SiO2 
 PCOD9569930
Probable space group: P 42/M N M
;
_chemical_formula_sum "Si O2"
_cell_formula_units_Z 88
_cell_length_a 15.000000
_cell_length_b 15.000000
_cell_length_c 21.000000
_cell_angle_alpha 90.000000
_cell_angle_beta 90.000000
_cell_angle_gamma 90.000000
_cell_volume 4725.000000
_symmetry_space_group_name_H-M "P 42/M N M"
_symmetry_group_IT_number 136
_symmetry_cell_setting 'tetragonal'
loop_
_space_group_symop_operation_xyz
x,y,z
1/2-y,1/2+x,1/2+z
-x,-y,z
1/2+y,1/2-x,1/2+z
1/2+x,1/2-y,1/2-z
1/2-x,1/2+y,1/2-z
y,x,-z
-y,-x,-z
-x,-y,-z
1/2+y,1/2-x,1/2-z
x,y,-z
1/2-y,1/2+x,1/2-z
1/2-x,1/2+y,1/2+z
1/2+x,1/2-y,1/2+z
-y,-x,z
y,x,z
loop_
_atom_site_type_symbol
_atom_site_label
_atom_site_fract_x
_atom_site_fract_y
_atom_site_fract_z
Si Si1 0.041560 0.723119 0.622901
Si Si2 0.701244 0.842816 0.423592
Si Si3 0.358955 0.016118 0.249353
Si Si4 0.424776 0.424776 0.922896
Si Si5 0.275290 0.124983 0.865697
Si Si6 0.697481 0.554217 0.576573
O O1 0.052632 0.826303 0.603629
O O2 0.131408 0.666241 0.605651
O O3 0.946232 0.693218 0.594168
O O4 0.025842 0.705458 0.697908
O O5 0.702698 0.839346 0.500000
O O6 0.792507 0.792507 0.401188
O O7 0.619463 0.779121 0.402973
O O8 0.434095 0.082773 0.278749
O O9 0.306394 0.074495 0.198370
O O10 0.500000 0.500000 0.906880
O O11 0.420700 0.420700 0.000000
O O12 0.207689 0.207689 0.856099
O O13 0.222405 0.046065 0.902620
O O14 0.694611 0.554295 0.500000
O O15 0.605852 0.605852 0.597786
#
# Coordination Sequence:
#
# PCOD9569930 Si02
#       6
#    16  16  16   8  16  16
#     4  11  21  38  59  87 118 156 195 244 305 364
#     4   9  18  34  58  86 114 148 197 250 301 357
#     4   9  20  39  63  85 111 149 195 250 304 353
#     4  11  24  40  58  86 127 167 202 242 296 365
#     4  11  23  39  56  86 122 156 198 247 299 363
#     4   9  20  39  60  84 114 152 200 251 301 356
#
# _framework density 18.624338999999999
#
# number of rings (size 3 to 8) (size 9 to 14) (size 15 to 20)
#    0.000    2.091    0.909    3.273    0.000    7.273 
#    1.636    4.545    0.000    0.000    0.000    0.000 
#    0.000    0.000    0.000    0.000    0.000    0.000 
#
# Total GULP energy -490223.695815 kJ/mol
# GULP energy per Si atom -5570.723816 kJ/mol
# Density = 1.858195 g / cm^3
# Si number density = 18.624339 Si / 1000 Ang^3
#
#
#
# Elastic Constant Matrix: (Units=GPa)
#
#
# Indices 1 2 3 4 5 6 
#
# 1 136.4831 53.6287 31.2034 0.0000 0.0000 0.0000
# 2 53.6287 136.4831 31.2034 0.0000 0.0000 0.0000
# 3 31.2034 31.2034 38.2066 0.0000 0.0000 0.0000
# 4 0.0000 0.0000 0.0000 25.4018 0.0000 0.0000
# 5 0.0000 0.0000 0.0000 0.0000 25.4018 0.0000
# 6 0.0000 0.0000 0.0000 0.0000 0.0000 35.3609
#
#
#
# Elastic Compliance Matrix: (Units=1/GPa)
#
#
# Indices 1 2 3 4 5 6 
#
# 1 0.009628 -0.002441 -0.005869 0.000000 0.000000 0.000000
# 2 -0.002441 0.009628 -0.005869 0.000000 0.000000 0.000000
# 3 -0.005869 -0.005869 0.035761 0.000000 0.000000 0.000000
# 4 0.000000 0.000000 0.000000 0.039367 0.000000 0.000000
# 5 0.000000 0.000000 0.000000 0.000000 0.039367 0.000000
# 6 0.000000 0.000000 0.000000 0.000000 0.000000 0.028280
#
#
# Mechanical properties :
#
#
# Convention : Reuss Voigt Hill
#
# Bulk Modulus (GPa) = 37.51445 60.36043 48.93744
# Shear Modulus (GPa) = 25.09069 30.24205 27.66637
#
# Velocity S-wave (km/s) = 3.67440 4.03400 3.85839
# Velocity P-wave (km/s) = 6.17965 7.36053 6.79579
#
# Compressibility (1/GPa) = 0.02665639
#
# Stress axis : x y z
#
# Youngs Moduli (GPa) = 103.86284 103.86284 27.96366
#
# Poissons Ratio (x) = 0.25356 0.16413
# Poissons Ratio (y) = 0.25356 0.16413
# Poissons Ratio (z) = 0.60962 0.60962
#
# Static dielectric constant tensor:
#      x y z
#    x 1.659780 0.000000 0.000000 
#    y 0.000000 1.659780 0.000000 
#    z 0.000000 0.000000 1.656610 
# 
# From -- ./inp_files/7339.got.cif
#   From: 2010.05.17/outbox.ucp.g08.bks.cvg/sg136_4_cif.got.tgz:7339.got - 2010.06.11 11:40:42.
