data_PCOD9569836
_publ_section_title
;
Structure prediction by ZEFSAII (Michael W. Deem and Ramdas Pophale) SiO2 
 PCOD9569836
Probable space group: P 42/M N M
;
_chemical_formula_sum "Si O2"
_cell_formula_units_Z 88
_cell_length_a 18.776765
_cell_length_b 18.776765
_cell_length_c 12.755657
_cell_angle_alpha 90.000000
_cell_angle_beta 90.000000
_cell_angle_gamma 90.000000
_cell_volume 4497.222495
_symmetry_space_group_name_H-M "P 42/M N M"
_symmetry_group_IT_number 136
_symmetry_cell_setting 'tetragonal'
loop_
_space_group_symop_operation_xyz
x,y,z
1/2-y,1/2+x,1/2+z
-x,-y,z
1/2+y,1/2-x,1/2+z
1/2+x,1/2-y,1/2-z
1/2-x,1/2+y,1/2-z
y,x,-z
-y,-x,-z
-x,-y,-z
1/2+y,1/2-x,1/2-z
x,y,-z
1/2-y,1/2+x,1/2-z
1/2-x,1/2+y,1/2+z
1/2+x,1/2-y,1/2+z
-y,-x,z
y,x,z
loop_
_atom_site_type_symbol
_atom_site_label
_atom_site_fract_x
_atom_site_fract_y
_atom_site_fract_z
Si Si1 0.291520 0.489508 0.195676
Si Si2 0.671036 0.786032 0.500000
Si Si3 0.068411 0.448849 0.615183
Si Si4 0.670428 0.937143 0.204016
Si Si5 0.907533 0.790429 0.500000
Si Si6 0.559494 0.559494 0.122994
Si Si7 0.156746 0.721905 0.755555
O O1 0.250514 0.534212 0.283838
O O2 0.280017 0.541127 0.097521
O O3 0.374166 0.471312 0.187391
O O4 0.253439 0.412977 0.199906
O O5 0.708680 0.708680 0.500000
O O6 0.732836 0.845291 0.500000
O O7 0.639454 0.790997 0.619155
O O8 0.073026 0.416369 0.500000
O O9 0.057824 0.384586 0.696442
O O10 0.131912 0.505899 0.629360
O O11 0.000000 0.500000 0.622307
O O12 0.673724 0.851849 0.195723
O O13 0.867475 0.867475 0.500000
O O14 0.500000 0.500000 0.115048
O O15 0.578915 0.578915 0.000000
O O16 0.222416 0.777585 0.751780
#
# Coordination Sequence:
#
# PCOD9569836 Si02
#       7
#    16   8  16  16   8   8  16
#     4  12  23  37  63  92 131 168 205 262 323 386
#     4   9  20  38  63  87 117 157 211 270 315 369
#     4  11  22  38  59  86 124 166 206 256 310 379
#     4  12  22  39  60  91 124 164 217 255 317 386
#     4  11  22  39  66  98 122 167 223 266 318 379
#     4  11  24  42  64  95 133 169 215 265 322 390
#     4  11  23  39  59  91 126 161 210 269 324 378
#
# _framework density 19.567632
#
# number of rings (size 3 to 8) (size 9 to 14) (size 15 to 20)
#    0.000    0.818    7.273    0.545    2.545    0.727 
#    1.636    0.000    0.000    0.000    0.000    3.182 
#    0.000    0.000    0.000    0.000    0.000    0.000 
#
# Total GULP energy -490105.685402 kJ/mol
# GULP energy per Si atom -5569.382789 kJ/mol
# Density = 1.952310 g / cm^3
# Si number density = 19.567632 Si / 1000 Ang^3
#
#
#
# Elastic Constant Matrix: (Units=GPa)
#
#
# Indices 1 2 3 4 5 6 
#
# 1 116.4132 39.8520 13.5401 0.0000 0.0000 0.0000
# 2 39.8520 116.4132 13.5401 0.0000 0.0000 0.0000
# 3 13.5401 13.5401 35.5089 0.0000 0.0000 0.0000
# 4 0.0000 0.0000 0.0000 21.5462 0.0000 0.0000
# 5 0.0000 0.0000 0.0000 0.0000 21.5462 0.0000
# 6 0.0000 0.0000 0.0000 0.0000 0.0000 44.8847
#
#
#
# Elastic Compliance Matrix: (Units=1/GPa)
#
#
# Indices 1 2 3 4 5 6 
#
# 1 0.009957 -0.003105 -0.002613 0.000000 0.000000 0.000000
# 2 -0.003105 0.009957 -0.002613 0.000000 0.000000 0.000000
# 3 -0.002613 -0.002613 0.030155 0.000000 0.000000 0.000000
# 4 0.000000 0.000000 0.000000 0.046412 0.000000 0.000000
# 5 0.000000 0.000000 0.000000 0.000000 0.046412 0.000000
# 6 0.000000 0.000000 0.000000 0.000000 0.000000 0.022279
#
#
# Mechanical properties :
#
#
# Convention : Reuss Voigt Hill
#
# Bulk Modulus (GPa) = 29.93335 44.68889 37.31112
# Shear Modulus (GPa) = 25.91104 31.02229 28.46667
#
# Velocity S-wave (km/s) = 3.64287 3.98601 3.81830
# Velocity P-wave (km/s) = 5.74671 6.63869 6.20874
#
# Compressibility (1/GPa) = 0.03340755
#
# Stress axis : x y z
#
# Youngs Moduli (GPa) = 100.43379 100.43379 33.16243
#
# Poissons Ratio (x) = 0.31181 0.08665
# Poissons Ratio (y) = 0.31181 0.08665
# Poissons Ratio (z) = 0.26242 0.26242
#
# Static dielectric constant tensor:
#      x y z
#    x 1.721410 0.000000 0.000000 
#    y 0.000000 1.721410 0.000000 
#    z 0.000000 0.000000 1.681350 
# 
# From -- ./inp_files/5095.got.cif
#   From: 2010.05.17/outbox.cif.g08.bks.cpg/sg136_3_cif.got.tgz:5095.got - 2010.05.20 12:54:53.
