data_PCOD9569366
_publ_section_title
;
Structure prediction by ZEFSAII (Michael W. Deem and Ramdas Pophale) SiO2 
 PCOD9569366
Probable space group: P 42/M N M
;
_chemical_formula_sum "Si O2"
_cell_formula_units_Z 80
_cell_length_a 12.724600
_cell_length_b 12.724600
_cell_length_c 27.675188
_cell_angle_alpha 90.000000
_cell_angle_beta 90.000000
_cell_angle_gamma 90.000000
_cell_volume 4481.040385
_symmetry_space_group_name_H-M "P 42/M N M"
_symmetry_group_IT_number 136
_symmetry_cell_setting 'tetragonal'
loop_
_space_group_symop_operation_xyz
x,y,z
1/2-y,1/2+x,1/2+z
-x,-y,z
1/2+y,1/2-x,1/2+z
1/2+x,1/2-y,1/2-z
1/2-x,1/2+y,1/2-z
y,x,-z
-y,-x,-z
-x,-y,-z
1/2+y,1/2-x,1/2-z
x,y,-z
1/2-y,1/2+x,1/2-z
1/2-x,1/2+y,1/2+z
1/2+x,1/2-y,1/2+z
-y,-x,z
y,x,z
loop_
_atom_site_type_symbol
_atom_site_label
_atom_site_fract_x
_atom_site_fract_y
_atom_site_fract_z
Si Si1 0.168202 0.003794 0.688376
Si Si2 0.190709 0.633975 0.055402
Si Si3 0.833413 0.477391 0.733590
Si Si4 0.992607 0.625773 0.875812
Si Si5 0.266567 0.908616 0.406317
O O1 0.099313 0.099313 0.667475
O O2 0.231015 0.041021 0.734832
O O3 0.241618 0.955121 0.647124
O O4 0.087024 0.912977 0.702654
O O5 0.285563 0.714438 0.065234
O O6 0.093965 0.651794 0.092012
O O7 0.228410 0.513141 0.061296
O O8 0.156040 0.649342 0.000000
O O9 0.916397 0.386090 0.745650
O O10 0.819656 0.489034 0.676370
O O11 0.000000 0.500000 0.865748
O O12 0.882459 0.641750 0.903517
O O13 0.175658 0.824343 0.418171
#
# Coordination Sequence:
#
# PCOD9569366 Si02
#       5
#    16  16  16  16  16
#     4  10  21  34  49  75 111 147 179 214 264 324
#     4  10  22  39  58  81 108 142 183 230 283 332
#     4  11  18  31  51  77 106 140 180 219 258 309
#     4  10  19  34  57  80 109 142 188 231 269 322
#     4  10  20  35  55  82 113 144 179 225 278 331
#
# _framework density 17.852996999999998
#
# number of rings (size 3 to 8) (size 9 to 14) (size 15 to 20)
#    0.000    1.800    4.000    1.800    0.000    7.600 
#    0.000    1.000    0.000    0.600    0.000    1.400 
#    0.000    0.000    0.000    0.000    0.000    0.000 
#
# Total GULP energy -446311.635488 kJ/mol
# GULP energy per Si atom -5578.895444 kJ/mol
# Density = 1.781236 g / cm^3
# Si number density = 17.852997 Si / 1000 Ang^3
#
#
#
# Elastic Constant Matrix: (Units=GPa)
#
#
# Indices 1 2 3 4 5 6 
#
# 1 67.4640 33.3553 22.5405 0.0000 0.0000 0.0000
# 2 33.3553 67.4640 22.5405 0.0000 0.0000 0.0000
# 3 22.5405 22.5405 54.5229 0.0000 0.0000 0.0000
# 4 0.0000 0.0000 0.0000 17.6343 0.0000 0.0000
# 5 0.0000 0.0000 0.0000 0.0000 17.6343 0.0000
# 6 0.0000 0.0000 0.0000 0.0000 0.0000 4.2511
#
#
#
# Elastic Compliance Matrix: (Units=1/GPa)
#
#
# Indices 1 2 3 4 5 6 
#
# 1 0.020743 -0.008575 -0.005030 0.000000 0.000000 0.000000
# 2 -0.008575 0.020743 -0.005030 0.000000 0.000000 0.000000
# 3 -0.005030 -0.005030 0.022500 0.000000 0.000000 0.000000
# 4 0.000000 0.000000 0.000000 0.056708 0.000000 0.000000
# 5 0.000000 0.000000 0.000000 0.000000 0.056708 0.000000
# 6 0.000000 0.000000 0.000000 0.000000 0.000000 0.235231
#
#
# Mechanical properties :
#
#
# Convention : Reuss Voigt Hill
#
# Bulk Modulus (GPa) = 37.43274 38.48041 37.95657
# Shear Modulus (GPa) = 10.89778 15.30490 13.10134
#
# Velocity S-wave (km/s) = 2.47334 2.93110 2.71190
# Velocity P-wave (km/s) = 5.40086 5.74943 5.57787
#
# Compressibility (1/GPa) = 0.02671459
#
# Stress axis : x y z
#
# Youngs Moduli (GPa) = 48.20892 48.20892 44.44394
#
# Poissons Ratio (x) = 0.41339 0.22357
# Poissons Ratio (y) = 0.41339 0.22357
# Poissons Ratio (z) = 0.24251 0.24251
#
# Static dielectric constant tensor:
#      x y z
#    x 1.621850 0.000000 0.000000 
#    y 0.000000 1.621850 0.000000 
#    z 0.000000 0.000000 1.610070 
# 
# From -- ./inp_files/9542.got.cif
#   From: 2010.05.17/outbox.cif.g08.bks.cpg/sg136_5_cif.got.tgz:9542.got - 2010.05.20 12:54:53.
