data_PCOD9569819
_publ_section_title
;
Structure prediction by ZEFSAII (Michael W. Deem and Ramdas Pophale) SiO2 
 PCOD9569819
Probable space group: P 42/M N M
;
_chemical_formula_sum "Si O2"
_cell_formula_units_Z 56
_cell_length_a 20.293571
_cell_length_b 20.293571
_cell_length_c 7.665353
_cell_angle_alpha 90.000000
_cell_angle_beta 90.000000
_cell_angle_gamma 90.000000
_cell_volume 3156.814844
_symmetry_space_group_name_H-M "P 42/M N M"
_symmetry_group_IT_number 136
_symmetry_cell_setting 'tetragonal'
loop_
_space_group_symop_operation_xyz
x,y,z
1/2-y,1/2+x,1/2+z
-x,-y,z
1/2+y,1/2-x,1/2+z
1/2+x,1/2-y,1/2-z
1/2-x,1/2+y,1/2-z
y,x,-z
-y,-x,-z
-x,-y,-z
1/2+y,1/2-x,1/2-z
x,y,-z
1/2-y,1/2+x,1/2-z
1/2-x,1/2+y,1/2+z
1/2+x,1/2-y,1/2+z
-y,-x,z
y,x,z
loop_
_atom_site_type_symbol
_atom_site_label
_atom_site_fract_x
_atom_site_fract_y
_atom_site_fract_z
Si Si1 0.892258 0.002875 0.000000
Si Si2 0.637642 0.744763 0.288426
Si Si3 0.244725 0.649752 0.211392
Si Si4 0.213401 0.007772 0.298360
O O1 0.848339 0.995373 0.829294
O O2 0.948187 0.948187 0.000000
O O3 0.926078 0.073923 0.000000
O O4 0.634279 0.744676 0.500000
O O5 0.678910 0.678910 0.237607
O O6 0.682670 0.806459 0.231130
O O7 0.563498 0.747231 0.219664
O O8 0.310886 0.689115 0.267942
O O9 0.246082 0.572953 0.257923
O O10 0.243762 0.652741 0.000000
O O11 0.194432 0.017348 0.500000
#
# Coordination Sequence:
#
# PCOD9569819 Si02
#       4
#     8  16  16  16
#     4  11  24  38  52  76 112 151 184 216 264 329
#     4   9  17  33  55  77 105 140 178 223 272 321
#     4   8  16  32  54  77 103 139 180 223 269 316
#     4  11  21  35  56  80 108 142 182 226 272 321
#
# _framework density 17.7394
#
# number of rings (size 3 to 8) (size 9 to 14) (size 15 to 20)
#    0.000    2.429    1.429    3.429    0.000    4.000 
#    2.571    1.429    0.000    0.857    0.000    6.000 
#    0.000    0.000    0.000    0.000    0.000    0.000 
#
# Total GULP energy -312295.578421 kJ/mol
# GULP energy per Si atom -5576.706758 kJ/mol
# Density = 1.769902 g / cm^3
# Si number density = 17.739400 Si / 1000 Ang^3
#
#
#
# Elastic Constant Matrix: (Units=GPa)
#
#
# Indices 1 2 3 4 5 6 
#
# 1 141.0908 65.2366 19.2571 0.0000 0.0000 0.0000
# 2 65.2366 141.0863 19.2563 0.0000 0.0000 0.0000
# 3 19.2571 19.2563 62.7201 0.0000 0.0000 0.0000
# 4 0.0000 0.0000 0.0000 7.3561 0.0000 0.0000
# 5 0.0000 0.0000 0.0000 0.0000 7.3573 0.0000
# 6 0.0000 0.0000 0.0000 0.0000 0.0000 22.8759
#
#
#
# Elastic Compliance Matrix: (Units=1/GPa)
#
#
# Indices 1 2 3 4 5 6 
#
# 1 0.009162 -0.004021 -0.001579 0.000000 0.000000 0.000000
# 2 -0.004021 0.009163 -0.001578 0.000000 0.000000 0.000000
# 3 -0.001579 -0.001578 0.016913 0.000000 0.000000 0.000000
# 4 0.000000 0.000000 0.000000 0.135942 0.000000 0.000000
# 5 0.000000 0.000000 0.000000 0.000000 0.135919 0.000000
# 6 0.000000 0.000000 0.000000 0.000000 0.000000 0.043714
#
#
# Mechanical properties :
#
#
# Convention : Reuss Voigt Hill
#
# Bulk Modulus (GPa) = 47.88867 61.37746 54.63307
# Shear Modulus (GPa) = 13.43613 23.59433 18.51523
#
# Velocity S-wave (km/s) = 2.75511 3.65094 3.23419
# Velocity P-wave (km/s) = 6.09714 7.24204 6.69411
#
# Compressibility (1/GPa) = 0.02088176
#
# Stress axis : x y z
#
# Youngs Moduli (GPa) = 109.14236 109.13920 59.12557
#
# Poissons Ratio (x) = 0.43886 0.09333
# Poissons Ratio (y) = 0.43887 0.09333
# Poissons Ratio (z) = 0.17229 0.17227
#
# Static dielectric constant tensor:
#      x y z
#    x 1.610540 0.000000 0.000000 
#    y 0.000000 1.610540 0.000000 
#    z 0.000000 0.000000 1.645320 
# 
# From -- ./inp_files/1304.got.cif
#   From: 2010.05.17/outbox.cif.g08.bks.cpg/sg136_1_cif.got.tgz:1304.got - 2010.05.20 12:54:53.
