data_PCOD9569664
_publ_section_title
;
Structure prediction by ZEFSAII (Michael W. Deem and Ramdas Pophale) SiO2 
 PCOD9569664
Probable space group: P 42/M N M
;
_chemical_formula_sum "Si O2"
_cell_formula_units_Z 96
_cell_length_a 16.830068
_cell_length_b 16.830068
_cell_length_c 20.309654
_cell_angle_alpha 90.000000
_cell_angle_beta 90.000000
_cell_angle_gamma 90.000000
_cell_volume 5752.733641
_symmetry_space_group_name_H-M "P 42/M N M"
_symmetry_group_IT_number 136
_symmetry_cell_setting 'tetragonal'
loop_
_space_group_symop_operation_xyz
x,y,z
1/2-y,1/2+x,1/2+z
-x,-y,z
1/2+y,1/2-x,1/2+z
1/2+x,1/2-y,1/2-z
1/2-x,1/2+y,1/2-z
y,x,-z
-y,-x,-z
-x,-y,-z
1/2+y,1/2-x,1/2-z
x,y,-z
1/2-y,1/2+x,1/2-z
1/2-x,1/2+y,1/2+z
1/2+x,1/2-y,1/2+z
-y,-x,z
y,x,z
loop_
_atom_site_type_symbol
_atom_site_label
_atom_site_fract_x
_atom_site_fract_y
_atom_site_fract_z
Si Si1 0.923027 0.790190 0.678889
Si Si2 0.684867 0.812822 0.153624
Si Si3 0.800123 0.066885 0.578095
Si Si4 0.261834 0.016104 0.821732
Si Si5 0.210566 0.337135 0.309049
Si Si6 0.502845 0.631457 0.570957
O O1 0.868402 0.868402 0.688721
O O2 0.860761 0.718657 0.665606
O O3 0.987231 0.802230 0.621545
O O4 0.966190 0.765494 0.746926
O O5 0.770423 0.770423 0.140037
O O6 0.621516 0.771789 0.105778
O O7 0.665261 0.791626 0.229370
O O8 0.688803 0.907900 0.153022
O O9 0.792044 0.052132 0.500000
O O10 0.879331 0.120670 0.588281
O O11 0.299046 0.928716 0.827739
O O12 0.185704 0.012508 0.867746
O O13 0.293003 0.293003 0.328714
O O14 0.499521 0.674134 0.500000
O O15 0.436232 0.563769 0.569827
O O16 0.586279 0.586279 0.575845
#
# Coordination Sequence:
#
# PCOD9569664 Si02
#       6
#    16  16  16  16  16  16
#     4  10  21  36  55  82 112 143 183 233 278 324
#     4   9  18  33  51  77 108 138 181 231 274 321
#     4  10  21  38  59  81 111 149 184 229 287 337
#     4  11  18  31  57  79 102 143 187 223 266 328
#     4   9  18  33  53  78 110 143 177 223 274 320
#     4   9  18  30  43  68 106 136 163 211 269 319
#
# _framework density 16.687719000000001
#
# number of rings (size 3 to 8) (size 9 to 14) (size 15 to 20)
#    0.000    2.333    1.667    3.500    0.000    2.000 
#    0.000    4.167    0.000    2.000    0.000    0.000 
#    0.000    0.000    0.000    0.000    0.000    0.000 
#
# Total GULP energy -534722.308524 kJ/mol
# GULP energy per Si atom -5570.024047 kJ/mol
# Density = 1.664974 g / cm^3
# Si number density = 16.687719 Si / 1000 Ang^3
#
#
#
# Elastic Constant Matrix: (Units=GPa)
#
#
# Indices 1 2 3 4 5 6 
#
# 1 97.8717 35.8105 33.4331 0.0000 0.0000 0.0000
# 2 35.8105 97.8717 33.4331 0.0000 0.0000 0.0000
# 3 33.4331 33.4331 63.1698 0.0000 0.0000 0.0000
# 4 0.0000 0.0000 0.0000 19.0516 0.0000 0.0000
# 5 0.0000 0.0000 0.0000 0.0000 19.0516 0.0000
# 6 0.0000 0.0000 0.0000 0.0000 0.0000 12.8201
#
#
#
# Elastic Compliance Matrix: (Units=1/GPa)
#
#
# Indices 1 2 3 4 5 6 
#
# 1 0.013143 -0.002970 -0.005385 0.000000 0.000000 0.000000
# 2 -0.002970 0.013143 -0.005385 0.000000 0.000000 0.000000
# 3 -0.005385 -0.005385 0.021530 0.000000 0.000000 0.000000
# 4 0.000000 0.000000 0.000000 0.052489 0.000000 0.000000
# 5 0.000000 0.000000 0.000000 0.000000 0.052489 0.000000
# 6 0.000000 0.000000 0.000000 0.000000 0.000000 0.078002
#
#
# Mechanical properties :
#
#
# Convention : Reuss Voigt Hill
#
# Bulk Modulus (GPa) = 49.16590 51.58516 50.37553
# Shear Modulus (GPa) = 18.86405 20.60042 19.73224
#
# Velocity S-wave (km/s) = 3.36581 3.51731 3.44239
# Velocity P-wave (km/s) = 6.68066 6.89017 6.78622
#
# Compressibility (1/GPa) = 0.02033930
#
# Stress axis : x y z
#
# Youngs Moduli (GPa) = 76.08377 76.08377 46.44699
#
# Poissons Ratio (x) = 0.22595 0.25009
# Poissons Ratio (y) = 0.22595 0.25009
# Poissons Ratio (z) = 0.40967 0.40967
#
# Static dielectric constant tensor:
#      x y z
#    x 1.573050 0.000000 0.000000 
#    y 0.000000 1.573050 0.000000 
#    z 0.000000 0.000000 1.554200 
# 
# From -- ./inp_files/6311.got.cif
#   From: 2010.05.17/outbox.cif.g08.bks.cpg/sg136_4_cif.got.tgz:6311.got - 2010.05.20 12:54:53.
