data_PCOD9569351
_publ_section_title
;
Structure prediction by ZEFSAII (Michael W. Deem and Ramdas Pophale) SiO2 
 PCOD9569351
Probable space group: P 42/M N M
;
_chemical_formula_sum "Si O2"
_cell_formula_units_Z 128
_cell_length_a 24.590775
_cell_length_b 24.590775
_cell_length_c 12.053174
_cell_angle_alpha 90.000000
_cell_angle_beta 90.000000
_cell_angle_gamma 90.000000
_cell_volume 7288.629229
_symmetry_space_group_name_H-M "P 42/M N M"
_symmetry_group_IT_number 136
_symmetry_cell_setting 'tetragonal'
loop_
_space_group_symop_operation_xyz
x,y,z
1/2-y,1/2+x,1/2+z
-x,-y,z
1/2+y,1/2-x,1/2+z
1/2+x,1/2-y,1/2-z
1/2-x,1/2+y,1/2-z
y,x,-z
-y,-x,-z
-x,-y,-z
1/2+y,1/2-x,1/2-z
x,y,-z
1/2-y,1/2+x,1/2-z
1/2-x,1/2+y,1/2+z
1/2+x,1/2-y,1/2+z
-y,-x,z
y,x,z
loop_
_atom_site_type_symbol
_atom_site_label
_atom_site_fract_x
_atom_site_fract_y
_atom_site_fract_z
Si Si1 0.943550 0.141392 0.632800
Si Si2 0.677687 0.173295 0.372524
Si Si3 0.123713 0.552102 0.874682
Si Si4 0.156619 0.067673 0.633571
Si Si5 0.220103 0.867954 0.235183
Si Si6 0.124834 0.435489 0.204391
Si Si7 0.278599 0.966241 0.871446
Si Si8 0.233368 0.580580 0.744736
O O1 0.944563 0.141015 0.500000
O O2 0.913817 0.086184 0.670992
O O3 0.905114 0.190346 0.672141
O O4 0.005339 0.147688 0.670589
O O5 0.693053 0.184786 0.500000
O O6 0.729711 0.164068 0.292439
O O7 0.646281 0.115628 0.364738
O O8 0.633601 0.215976 0.325287
O O9 0.083802 0.575514 0.781085
O O10 0.116315 0.487553 0.870909
O O11 0.184011 0.568179 0.831016
O O12 0.115159 0.572686 0.000000
O O13 0.162931 0.067602 0.500000
O O14 0.105503 0.105503 0.660858
O O15 0.211203 0.089404 0.689309
O O16 0.175957 0.824044 0.193982
O O17 0.239590 0.913995 0.148617
O O18 0.170801 0.452233 0.292997
O O19 0.259578 0.025753 0.829152
O O20 0.292856 0.970008 0.000000
#
# Coordination Sequence:
#
# PCOD9569351 Si02
#       8
#    16  16  16  16  16  16  16  16
#     4   9  17  31  53  81 111 139 170 214 271 328
#     4  10  20  34  53  77 108 141 178 223 273 322
#     4  10  19  34  53  71 100 136 173 217 269 322
#     4  10  20  34  54  81 111 142 177 219 268 323
#     4  10  20  34  53  81 110 138 177 226 274 323
#     4   9  20  33  50  77 101 130 175 219 268 326
#     4  10  19  34  55  76 103 139 180 224 267 316
#     4  10  20  35  53  78 104 143 184 221 259 321
#
# _framework density 17.561601
#
# number of rings (size 3 to 8) (size 9 to 14) (size 15 to 20)
#    0.000    2.250    1.250    1.875    0.000    2.000 
#    0.000    4.375    0.000    1.125    0.000    0.000 
#    0.000    2.000    0.000    0.000    0.000    0.000 
#
# Total GULP energy -713244.795575 kJ/mol
# GULP energy per Si atom -5572.224965 kJ/mol
# Density = 1.752163 g / cm^3
# Si number density = 17.561601 Si / 1000 Ang^3
#
#
#
# Elastic Constant Matrix: (Units=GPa)
#
#
# Indices 1 2 3 4 5 6 
#
# 1 70.4634 37.4575 10.0491 0.0000 0.0000 0.0000
# 2 37.4575 70.4634 10.0491 0.0000 0.0000 0.0000
# 3 10.0491 10.0491 59.1231 0.0000 0.0000 0.0000
# 4 0.0000 0.0000 0.0000 8.4019 0.0000 0.0000
# 5 0.0000 0.0000 0.0000 0.0000 8.4019 0.0000
# 6 0.0000 0.0000 0.0000 0.0000 0.0000 19.8970
#
#
#
# Elastic Compliance Matrix: (Units=1/GPa)
#
#
# Indices 1 2 3 4 5 6 
#
# 1 0.019933 -0.010364 -0.001626 0.000000 0.000000 0.000000
# 2 -0.010364 0.019933 -0.001626 0.000000 0.000000 0.000000
# 3 -0.001626 -0.001626 0.017467 0.000000 0.000000 0.000000
# 4 0.000000 0.000000 0.000000 0.119021 0.000000 0.000000
# 5 0.000000 0.000000 0.000000 0.000000 0.119021 0.000000
# 6 0.000000 0.000000 0.000000 0.000000 0.000000 0.050259
#
#
# Mechanical properties :
#
#
# Convention : Reuss Voigt Hill
#
# Bulk Modulus (GPa) = 33.22378 35.01792 34.12085
# Shear Modulus (GPa) = 13.05818 16.83977 14.94897
#
# Velocity S-wave (km/s) = 2.72980 3.09997 2.92075
# Velocity P-wave (km/s) = 5.37543 5.72681 5.55390
#
# Compressibility (1/GPa) = 0.03009893
#
# Stress axis : x y z
#
# Youngs Moduli (GPa) = 50.16745 50.16745 57.25171
#
# Poissons Ratio (x) = 0.51995 0.09312
# Poissons Ratio (y) = 0.51995 0.09312
# Poissons Ratio (z) = 0.08159 0.08159
#
# Static dielectric constant tensor:
#      x y z
#    x 1.610280 0.000000 0.000000 
#    y 0.000000 1.610280 0.000000 
#    z 0.000000 0.000000 1.580530 
# 
# From -- ./inp_files/4067.got.cif
#   From: 2010.05.17/outbox.cif.g08.bks.cpg/sg136_3_cif.got.tgz:4067.got - 2010.05.20 12:54:53.
