data_PCOD9569255
_publ_section_title
;
Structure prediction by ZEFSAII (Michael W. Deem and Ramdas Pophale) SiO2 
 PCOD9569255
Probable space group: P 42/M N M
;
_chemical_formula_sum "Si O2"
_cell_formula_units_Z 112
_cell_length_a 14.332632
_cell_length_b 14.332632
_cell_length_c 30.500984
_cell_angle_alpha 90.000000
_cell_angle_beta 90.000000
_cell_angle_gamma 90.000000
_cell_volume 6265.644509
_symmetry_space_group_name_H-M "P 42/M N M"
_symmetry_group_IT_number 136
_symmetry_cell_setting 'tetragonal'
loop_
_space_group_symop_operation_xyz
x,y,z
1/2-y,1/2+x,1/2+z
-x,-y,z
1/2+y,1/2-x,1/2+z
1/2+x,1/2-y,1/2-z
1/2-x,1/2+y,1/2-z
y,x,-z
-y,-x,-z
-x,-y,-z
1/2+y,1/2-x,1/2-z
x,y,-z
1/2-y,1/2+x,1/2-z
1/2-x,1/2+y,1/2+z
1/2+x,1/2-y,1/2+z
-y,-x,z
y,x,z
loop_
_atom_site_type_symbol
_atom_site_label
_atom_site_fract_x
_atom_site_fract_y
_atom_site_fract_z
Si Si1 0.702313 0.982217 0.371393
Si Si2 0.503057 0.655464 0.949454
Si Si3 0.025550 0.176383 0.184790
Si Si4 0.143666 0.707850 0.844125
Si Si5 0.002056 0.844602 0.289388
Si Si6 0.171096 0.681610 0.663742
Si Si7 0.092109 0.627277 0.752059
O O1 0.639604 0.888927 0.371131
O O2 0.764500 0.986766 0.414532
O O3 0.770838 0.981678 0.328451
O O4 0.652522 0.082684 0.365487
O O5 0.419338 0.580663 0.946331
O O6 0.597182 0.597182 0.939806
O O7 0.507312 0.687598 0.000000
O O8 0.075871 0.075871 0.177699
O O9 0.102973 0.251631 0.170749
O O10 0.936733 0.212729 0.157117
O O11 0.001810 0.181399 0.237105
O O12 0.240129 0.759871 0.853837
O O13 0.138073 0.667890 0.795051
O O14 0.096853 0.903148 0.297281
O O15 0.918325 0.918325 0.293574
O O16 0.225443 0.774558 0.649068
O O17 0.128016 0.689815 0.712374
O O18 0.121687 0.519775 0.744840
#
# Coordination Sequence:
#
# PCOD9569255 Si02
#       7
#    16  16  16  16  16  16  16
#     4  12  22  33  49  79 108 131 174 220 264 327
#     4   9  18  34  55  78 109 145 174 210 263 325
#     4  10  22  38  51  70  99 139 192 231 263 310
#     4  12  23  35  52  71  99 140 179 228 278 312
#     4  10  19  31  47  66  97 141 181 223 261 293
#     4  11  21  34  51  68  97 139 177 223 270 306
#     4  11  20  34  49  66  99 138 185 230 273 309
#
# _framework density 17.875256
#
# number of rings (size 3 to 8) (size 9 to 14) (size 15 to 20)
#    0.000    1.286    2.857    5.571    0.000    3.714 
#    0.000    0.000    0.000    0.000    0.000    2.000 
#    0.000    1.714    0.000    3.000    0.000    0.143 
#
# Total GULP energy -624426.283091 kJ/mol
# GULP energy per Si atom -5575.234670 kJ/mol
# Density = 1.783457 g / cm^3
# Si number density = 17.875256 Si / 1000 Ang^3
#
#
#
# Elastic Constant Matrix: (Units=GPa)
#
#
# Indices 1 2 3 4 5 6 
#
# 1 67.3594 27.4887 17.2081 0.0000 0.0000 0.0000
# 2 27.4887 67.3594 17.2081 0.0000 0.0000 0.0000
# 3 17.2081 17.2081 52.0928 0.0000 0.0000 0.0000
# 4 0.0000 0.0000 0.0000 1.3510 0.0000 0.0000
# 5 0.0000 0.0000 0.0000 0.0000 1.3510 0.0000
# 6 0.0000 0.0000 0.0000 0.0000 0.0000 30.9544
#
#
#
# Elastic Compliance Matrix: (Units=1/GPa)
#
#
# Indices 1 2 3 4 5 6 
#
# 1 0.018530 -0.006551 -0.003957 0.000000 0.000000 0.000000
# 2 -0.006551 0.018530 -0.003957 0.000000 0.000000 0.000000
# 3 -0.003957 -0.003957 0.021811 0.000000 0.000000 0.000000
# 4 0.000000 0.000000 0.000000 0.740218 0.000000 0.000000
# 5 0.000000 0.000000 0.000000 0.000000 0.740218 0.000000
# 6 0.000000 0.000000 0.000000 0.000000 0.000000 0.032306
#
#
# Mechanical properties :
#
#
# Convention : Reuss Voigt Hill
#
# Bulk Modulus (GPa) = 33.39954 34.51347 33.95650
# Shear Modulus (GPa) = 3.10458 15.05838 9.08148
#
# Velocity S-wave (km/s) = 1.31931 2.90559 2.25644
# Velocity P-wave (km/s) = 4.58760 5.53231 5.08196
#
# Compressibility (1/GPa) = 0.02994054
#
# Stress axis : x y z
#
# Youngs Moduli (GPa) = 53.96642 53.96642 45.84878
#
# Poissons Ratio (x) = 0.35354 0.18143
# Poissons Ratio (y) = 0.35354 0.18143
# Poissons Ratio (z) = 0.21355 0.21355
#
# Static dielectric constant tensor:
#      x y z
#    x 1.711350 0.000000 0.000000 
#    y 0.000000 1.711350 0.000000 
#    z 0.000000 0.000000 1.558790 
# 
# From -- ./inp_files/9940.got.cif
#   From: 2010.05.17/outbox.cif.g08.bks.cpg/sg136_5_cif.got.tgz:9940.got - 2010.05.20 12:54:53.
