data_PCOD9569771
_publ_section_title
;
Structure prediction by ZEFSAII (Michael W. Deem and Ramdas Pophale) SiO2 
 PCOD9569771
Probable space group: P 42/M N M
;
_chemical_formula_sum "Si O2"
_cell_formula_units_Z 64
_cell_length_a 12.659880
_cell_length_b 12.659880
_cell_length_c 17.844173
_cell_angle_alpha 90.000000
_cell_angle_beta 90.000000
_cell_angle_gamma 90.000000
_cell_volume 2859.931317
_symmetry_space_group_name_H-M "P 42/M N M"
_symmetry_group_IT_number 136
_symmetry_cell_setting 'tetragonal'
loop_
_space_group_symop_operation_xyz
x,y,z
1/2-y,1/2+x,1/2+z
-x,-y,z
1/2+y,1/2-x,1/2+z
1/2+x,1/2-y,1/2-z
1/2-x,1/2+y,1/2-z
y,x,-z
-y,-x,-z
-x,-y,-z
1/2+y,1/2-x,1/2-z
x,y,-z
1/2-y,1/2+x,1/2-z
1/2-x,1/2+y,1/2+z
1/2+x,1/2-y,1/2+z
-y,-x,z
y,x,z
loop_
_atom_site_type_symbol
_atom_site_label
_atom_site_fract_x
_atom_site_fract_y
_atom_site_fract_z
Si Si1 0.258820 0.079860 0.328573
Si Si2 0.210973 0.376526 0.910509
Si Si3 0.993501 0.170804 0.817706
Si Si4 0.467461 0.149566 0.586958
O O1 0.175163 0.175163 0.336326
O O2 0.252965 0.036742 0.243842
O O3 0.372990 0.114441 0.358820
O O4 0.229383 0.977580 0.377840
O O5 0.268820 0.268820 0.883734
O O6 0.086062 0.388511 0.893777
O O7 0.216630 0.376801 0.000000
O O8 0.081290 0.081290 0.822985
O O9 0.976034 0.225951 0.896891
O O10 0.885773 0.114227 0.791994
O O11 0.444480 0.124274 0.500000
#
# Coordination Sequence:
#
# PCOD9569771 Si02
#       4
#    16  16  16  16
#     4  11  24  41  65  97 135 178 222 276 335 397
#     4  10  22  41  66  95 132 177 223 275 333 397
#     4  10  23  42  64  95 135 179 227 278 332 397
#     4  11  24  43  68  99 134 174 222 278 339 400
#
# _framework density 22.378159
#
# number of rings (size 3 to 8) (size 9 to 14) (size 15 to 20)
#    0.000    1.500    0.000    3.750    3.500    8.500 
#    0.000    2.500    0.000    0.000    0.000    0.000 
#    0.000    0.000    0.000    0.000    0.000    0.000 
#
# Total GULP energy -357353.009282 kJ/mol
# GULP energy per Si atom -5583.640770 kJ/mol
# Density = 2.232723 g / cm^3
# Si number density = 22.378159 Si / 1000 Ang^3
#
#
#
# Elastic Constant Matrix: (Units=GPa)
#
#
# Indices 1 2 3 4 5 6 
#
# 1 88.9940 41.5506 43.5377 0.0000 0.0000 0.0000
# 2 41.5506 88.9940 43.5377 0.0000 0.0000 0.0000
# 3 43.5377 43.5377 48.7825 0.0000 0.0000 0.0000
# 4 0.0000 0.0000 0.0000 30.4399 0.0000 0.0000
# 5 0.0000 0.0000 0.0000 0.0000 30.4399 0.0000
# 6 0.0000 0.0000 0.0000 0.0000 0.0000 17.9331
#
#
#
# Elastic Compliance Matrix: (Units=1/GPa)
#
#
# Indices 1 2 3 4 5 6 
#
# 1 0.020003 -0.001075 -0.016893 0.000000 0.000000 0.000000
# 2 -0.001075 0.020003 -0.016893 0.000000 0.000000 0.000000
# 3 -0.016893 -0.016893 0.050653 0.000000 0.000000 0.000000
# 4 0.000000 0.000000 0.000000 0.032852 0.000000 0.000000
# 5 0.000000 0.000000 0.000000 0.000000 0.032852 0.000000
# 6 0.000000 0.000000 0.000000 0.000000 0.000000 0.055763
#
#
# Mechanical properties :
#
#
# Convention : Reuss Voigt Hill
#
# Bulk Modulus (GPa) = 47.76289 53.78030 50.77159
# Shear Modulus (GPa) = 17.31139 22.30552 19.80845
#
# Velocity S-wave (km/s) = 2.78436 3.16057 2.97841
# Velocity P-wave (km/s) = 5.63265 6.11585 5.87921
#
# Compressibility (1/GPa) = 0.02093676
#
# Stress axis : x y z
#
# Youngs Moduli (GPa) = 49.99240 49.99240 19.74204
#
# Poissons Ratio (x) = 0.05373 0.33351
# Poissons Ratio (y) = 0.05373 0.33351
# Poissons Ratio (z) = 0.84454 0.84454
#
# Static dielectric constant tensor:
#      x y z
#    x 1.866920 0.000000 0.000000 
#    y 0.000000 1.866920 0.000000 
#    z 0.000000 0.000000 1.792820 
# 
# From -- ./inp_files/7044.got.cif
#   From: 2010.05.17/outbox.cif.g08.bks.cpg/sg136_4_cif.got.tgz:7044.got - 2010.05.20 12:54:53.
