data_PCOD9569210
_publ_section_title
;
Structure prediction by ZEFSAII (Michael W. Deem and Ramdas Pophale) SiO2 
 PCOD9569210
Probable space group: P 42/M N M
;
_chemical_formula_sum "Si O2"
_cell_formula_units_Z 64
_cell_length_a 12.111333
_cell_length_b 12.111333
_cell_length_c 20.406558
_cell_angle_alpha 90.000000
_cell_angle_beta 90.000000
_cell_angle_gamma 90.000000
_cell_volume 2993.323452
_symmetry_space_group_name_H-M "P 42/M N M"
_symmetry_group_IT_number 136
_symmetry_cell_setting 'tetragonal'
loop_
_space_group_symop_operation_xyz
x,y,z
1/2-y,1/2+x,1/2+z
-x,-y,z
1/2+y,1/2-x,1/2+z
1/2+x,1/2-y,1/2-z
1/2-x,1/2+y,1/2-z
y,x,-z
-y,-x,-z
-x,-y,-z
1/2+y,1/2-x,1/2-z
x,y,-z
1/2-y,1/2+x,1/2-z
1/2-x,1/2+y,1/2+z
1/2+x,1/2-y,1/2+z
-y,-x,z
y,x,z
loop_
_atom_site_type_symbol
_atom_site_label
_atom_site_fract_x
_atom_site_fract_y
_atom_site_fract_z
Si Si1 0.657360 0.158755 0.673023
Si Si2 0.972963 0.629274 0.426239
Si Si3 0.707050 0.292951 0.076078
Si Si4 0.441819 0.264256 0.706964
Si Si5 0.914420 0.914420 0.693772
O O1 0.746026 0.253975 0.660245
O O2 0.680539 0.054029 0.627455
O O3 0.534432 0.205810 0.663448
O O4 0.674531 0.121933 0.748610
O O5 0.005205 0.663415 0.500000
O O6 0.000000 0.500000 0.422113
O O7 0.846094 0.670014 0.417344
O O8 0.646140 0.353861 0.135306
O O9 0.678479 0.321522 0.000000
O O10 0.350677 0.350677 0.679640
O O11 0.516018 0.335030 0.758283
O O12 0.000000 0.000000 0.663107
#
# Coordination Sequence:
#
# PCOD9569210 Si02
#       5
#    16  16   8  16   8
#     4  11  23  38  59  88 119 158 202 249 309 369
#     4  10  23  42  62  88 120 156 202 253 305 370
#     4  10  20  37  64  90 119 159 197 249 322 376
#     4  10  22  37  57  86 123 163 202 251 309 370
#     4  10  18  35  56  82 123 156 193 248 301 367
#
# _framework density 21.380917
#
# number of rings (size 3 to 8) (size 9 to 14) (size 15 to 20)
#    0.000    1.750    3.750    0.000    3.500    0.750 
#    2.250    2.500    0.000    0.000    0.000    1.750 
#    0.000    0.000    0.000    0.000    0.000    0.000 
#
# Total GULP energy -356950.157929 kJ/mol
# GULP energy per Si atom -5577.346218 kJ/mol
# Density = 2.133225 g / cm^3
# Si number density = 21.380917 Si / 1000 Ang^3
#
#
#
# Elastic Constant Matrix: (Units=GPa)
#
#
# Indices 1 2 3 4 5 6 
#
# 1 114.2599 50.0000 30.3369 0.0000 0.0000 0.0000
# 2 50.0000 114.2594 30.3370 0.0000 0.0000 0.0000
# 3 30.3369 30.3370 39.7853 0.0000 0.0000 0.0000
# 4 0.0000 0.0000 0.0000 19.7982 0.0000 0.0000
# 5 0.0000 0.0000 0.0000 0.0000 19.7985 0.0000
# 6 0.0000 0.0000 0.0000 0.0000 0.0000 47.5897
#
#
#
# Elastic Compliance Matrix: (Units=1/GPa)
#
#
# Indices 1 2 3 4 5 6 
#
# 1 0.012018 -0.003543 -0.006462 0.000000 0.000000 0.000000
# 2 -0.003543 0.012018 -0.006462 0.000000 0.000000 0.000000
# 3 -0.006462 -0.006462 0.034990 0.000000 0.000000 0.000000
# 4 0.000000 0.000000 0.000000 0.050510 0.000000 0.000000
# 5 0.000000 0.000000 0.000000 0.000000 0.050509 0.000000
# 6 0.000000 0.000000 0.000000 0.000000 0.000000 0.021013
#
#
# Mechanical properties :
#
#
# Convention : Reuss Voigt Hill
#
# Bulk Modulus (GPa) = 38.32763 54.40584 46.36674
# Shear Modulus (GPa) = 22.45259 27.94598 25.19928
#
# Velocity S-wave (km/s) = 3.24408 3.61924 3.43678
# Velocity P-wave (km/s) = 5.65659 6.55488 6.12223
#
# Compressibility (1/GPa) = 0.02609084
#
# Stress axis : x y z
#
# Youngs Moduli (GPa) = 83.20591 83.20537 28.57951
#
# Poissons Ratio (x) = 0.29484 0.18469
# Poissons Ratio (y) = 0.29484 0.18469
# Poissons Ratio (z) = 0.53770 0.53770
#
# Static dielectric constant tensor:
#      x y z
#    x 1.811620 0.000000 0.000000 
#    y 0.000000 1.811620 0.000000 
#    z 0.000000 0.000000 1.784710 
# 
# From -- ./inp_files/8151.got.cif
#   From: 2010.05.17/outbox.cif.g08.bks.cpg/sg136_5_cif.got.tgz:8151.got - 2010.05.20 12:54:53.
