data_PCOD9569200
_publ_section_title
;
Structure prediction by ZEFSAII (Michael W. Deem and Ramdas Pophale) SiO2 
 PCOD9569200
Probable space group: P 42/M N M
;
_chemical_formula_sum "Si O2"
_cell_formula_units_Z 84
_cell_length_a 20.485877
_cell_length_b 20.485877
_cell_length_c 11.359545
_cell_angle_alpha 90.000000
_cell_angle_beta 90.000000
_cell_angle_gamma 90.000000
_cell_volume 4767.273387
_symmetry_space_group_name_H-M "P 42/M N M"
_symmetry_group_IT_number 136
_symmetry_cell_setting 'tetragonal'
loop_
_space_group_symop_operation_xyz
x,y,z
1/2-y,1/2+x,1/2+z
-x,-y,z
1/2+y,1/2-x,1/2+z
1/2+x,1/2-y,1/2-z
1/2-x,1/2+y,1/2-z
y,x,-z
-y,-x,-z
-x,-y,-z
1/2+y,1/2-x,1/2-z
x,y,-z
1/2-y,1/2+x,1/2-z
1/2-x,1/2+y,1/2+z
1/2+x,1/2-y,1/2+z
-y,-x,z
y,x,z
loop_
_atom_site_type_symbol
_atom_site_label
_atom_site_fract_x
_atom_site_fract_y
_atom_site_fract_z
Si Si1 0.500000 0.500000 0.178836
Si Si2 0.099026 0.099026 0.636409
Si Si3 0.903559 0.202760 0.000000
Si Si4 0.647839 0.457510 0.500000
Si Si5 0.303462 0.193919 0.138734
Si Si6 0.073304 0.228923 0.237000
Si Si7 0.892698 0.107303 0.367063
Si Si8 0.071392 0.754591 0.744569
O O1 0.446352 0.553649 0.220962
O O2 0.448032 0.448032 0.127131
O O3 0.083383 0.083383 0.500000
O O4 0.174221 0.085947 0.664770
O O5 0.910116 0.244298 0.881948
O O6 0.964163 0.151323 0.000000
O O7 0.837076 0.162925 0.000000
O O8 0.578427 0.421574 0.500000
O O9 0.687935 0.435306 0.615418
O O10 0.256882 0.256882 0.159944
O O11 0.275857 0.134070 0.214622
O O12 0.376826 0.212284 0.173445
O O13 0.298819 0.178338 0.000000
O O14 0.004557 0.262982 0.264737
O O15 0.873870 0.126130 0.500000
O O16 0.829328 0.080093 0.300612
#
# Coordination Sequence:
#
# PCOD9569200 Si02
#       8
#     4   8   8   8  16  16   8  16
#     4  12  25  36  52  77 130 181 200 228 281 358
#     4  12  23  34  52  81 120 167 201 235 292 353
#     4  10  20  35  48  76 117 155 185 223 297 357
#     4  10  18  33  54  78 109 153 191 239 277 341
#     4  11  21  38  66  92 113 155 211 258 295 345
#     4  11  22  38  57  85 121 151 198 250 300 353
#     4  12  21  34  54  83 116 161 211 239 274 343
#     4  11  23  37  57  85 119 155 195 250 300 353
#
# _framework density 17.620135000000001
#
# number of rings (size 3 to 8) (size 9 to 14) (size 15 to 20)
#    0.000    0.952    6.667    1.429    0.000    0.952 
#    1.714    0.000    0.000    0.571    0.000    1.333 
#    0.000    0.000    0.000    0.000    0.000    0.000 
#
# Total GULP energy -468744.020362 kJ/mol
# GULP energy per Si atom -5580.285957 kJ/mol
# Density = 1.758003 g / cm^3
# Si number density = 17.620135 Si / 1000 Ang^3
#
#
#
# Elastic Constant Matrix: (Units=GPa)
#
#
# Indices 1 2 3 4 5 6 
#
# 1 80.1598 41.6596 12.3393 0.0000 0.0000 0.0000
# 2 41.6596 80.1582 12.3398 0.0000 0.0000 0.0000
# 3 12.3393 12.3398 58.8230 0.0000 0.0000 0.0000
# 4 0.0000 0.0000 0.0000 6.2892 0.0000 0.0000
# 5 0.0000 0.0000 0.0000 0.0000 6.2865 0.0000
# 6 0.0000 0.0000 0.0000 0.0000 0.0000 34.7631
#
#
#
# Elastic Compliance Matrix: (Units=1/GPa)
#
#
# Indices 1 2 3 4 5 6 
#
# 1 0.017274 -0.008701 -0.001798 0.000000 0.000000 0.000000
# 2 -0.008701 0.017274 -0.001799 0.000000 0.000000 0.000000
# 3 -0.001798 -0.001799 0.017755 0.000000 0.000000 0.000000
# 4 0.000000 0.000000 0.000000 0.159003 0.000000 0.000000
# 5 0.000000 0.000000 0.000000 0.000000 0.159071 0.000000
# 6 0.000000 0.000000 0.000000 0.000000 0.000000 0.028766
#
#
# Mechanical properties :
#
#
# Convention : Reuss Voigt Hill
#
# Bulk Modulus (GPa) = 36.09140 39.09094 37.59117
# Shear Modulus (GPa) = 11.54806 19.65458 15.60132
#
# Velocity S-wave (km/s) = 2.56284 3.34348 2.97884
# Velocity P-wave (km/s) = 5.41156 6.09415 5.76297
#
# Compressibility (1/GPa) = 0.02770743
#
# Stress axis : x y z
#
# Youngs Moduli (GPa) = 57.89165 57.89035 56.32313
#
# Poissons Ratio (x) = 0.50368 0.10129
# Poissons Ratio (y) = 0.50369 0.10130
# Poissons Ratio (z) = 0.10411 0.10412
#
# Static dielectric constant tensor:
#      x y z
#    x 1.590700 0.000000 0.000000 
#    y 0.000000 1.590700 0.000000 
#    z 0.000000 0.000000 1.619240 
# 
# From -- ./inp_files/3765.got.cif
#   From: 2010.05.17/outbox.cif.g08.bks.cpg/sg136_2_cif.got.tgz:3765.got - 2010.05.20 12:54:53.
