data_PCOD9569983
_publ_section_title
;
Structure prediction by ZEFSAII (Michael W. Deem and Ramdas Pophale) SiO2 
 PCOD9569983
Probable space group: P 42/N M C
;
_chemical_formula_sum "Si O2"
_cell_formula_units_Z 96
_cell_length_a 15.358276
_cell_length_b 15.358276
_cell_length_c 22.717713
_cell_angle_alpha 90.000000
_cell_angle_beta 90.000000
_cell_angle_gamma 90.000000
_cell_volume 5358.577849
_symmetry_space_group_name_H-M "P 42/N M C"
_symmetry_group_IT_number 137
_space_group.IT_coordinate_system_code '2'
_symmetry_cell_setting 'tetragonal'
loop_
_space_group_symop_operation_xyz
x,y,z
1/2-y,x,1/2+z
1/2-x,1/2-y,z
y,1/2-x,1/2+z
1/2+x,-y,-z
-x,1/2+y,-z
1/2+y,1/2+x,1/2-z
-y,-x,1/2-z
-x,-y,-z
1/2+y,-x,1/2-z
1/2+x,1/2+y,-z
-y,1/2+x,1/2-z
1/2-x,y,z
x,1/2-y,z
1/2-y,1/2-x,1/2+z
y,x,1/2+z
loop_
_atom_site_type_symbol
_atom_site_label
_atom_site_fract_x
_atom_site_fract_y
_atom_site_fract_z
Si Si1 0.570461 0.250000 0.879879
Si Si2 0.750000 0.347277 0.501896
Si Si3 0.750000 0.619893 0.572292
Si Si4 0.890089 0.445614 0.031575
Si Si5 0.657036 0.567435 0.135704
Si Si6 0.086275 0.054206 0.078475
Si Si7 0.250000 0.150314 0.566335
Si Si8 0.463325 0.568086 0.181944
O O1 0.484481 0.250000 0.921504
O O2 0.564849 0.162985 0.841673
O O3 0.646590 0.250000 0.927305
O O4 0.750000 0.250000 0.480160
O O5 0.842839 0.382445 0.480087
O O6 0.838496 0.650867 0.603422
O O7 0.750000 0.645688 0.504633
O O8 0.843232 0.492325 0.086120
O O9 0.989783 0.454114 0.051971
O O10 0.863737 0.499520 0.972600
O O11 0.750000 0.563814 0.168106
O O12 0.567833 0.559316 0.172141
O O13 0.110312 0.156004 0.084251
O O14 0.084042 0.002783 0.140066
O O15 0.250000 0.250000 0.586072
O O16 0.442406 0.557595 0.250000
#
# Coordination Sequence:
#
# PCOD9569983 Si02
#       8
#     8   8   8  16  16  16   8  16
#     4  10  20  40  58  78 104 150 199 232 274 322
#     4  12  22  32  52  84 120 142 182 230 280 331
#     4  10  18  30  58  86 120 146 174 219 274 353
#     4  10  19  33  56  82 112 150 180 229 281 339
#     4  10  19  33  58  89 115 142 185 233 282 341
#     4  10  20  36  57  79 114 148 189 222 278 350
#     4  12  22  32  52  90 126 150 169 220 295 365
#     4  10  22  42  60  78 108 155 200 238 280 325
#
# _framework density 17.915202000000001
#
# number of rings (size 3 to 8) (size 9 to 14) (size 15 to 20)
#    0.000    1.667    3.333    2.750    0.000    0.667 
#    4.500    0.000    0.000    0.000    0.000    0.000 
#    0.000    0.000    0.000    0.000    0.000    0.000 
#
# Total GULP energy -534764.614917 kJ/mol
# GULP energy per Si atom -5570.464739 kJ/mol
# Density = 1.787443 g / cm^3
# Si number density = 17.915202 Si / 1000 Ang^3
#
#
#
# Elastic Constant Matrix: (Units=GPa)
#
#
# Indices 1 2 3 4 5 6 
#
# 1 78.2608 6.6806 19.1983 0.0000 0.0000 0.0000
# 2 6.6806 78.2596 19.1972 0.0000 0.0000 0.0000
# 3 19.1983 19.1972 73.6701 0.0000 0.0000 0.0000
# 4 0.0000 0.0000 0.0000 -11.5485 0.0000 0.0000
# 5 0.0000 0.0000 0.0000 0.0000 -11.5501 0.0000
# 6 0.0000 0.0000 0.0000 0.0000 0.0000 58.5896
#
#
#
# Elastic Compliance Matrix: (Units=1/GPa)
#
#
# Indices 1 2 3 4 5 6 
#
# 1 0.013658 -0.000313 -0.003478 0.000000 0.000000 0.000000
# 2 -0.000313 0.013658 -0.003477 0.000000 0.000000 0.000000
# 3 -0.003478 -0.003477 0.015386 0.000000 0.000000 0.000000
# 4 0.000000 0.000000 0.000000 -0.086592 0.000000 0.000000
# 5 0.000000 0.000000 0.000000 0.000000 -0.086579 0.000000
# 6 0.000000 0.000000 0.000000 0.000000 0.000000 0.017068
#
#
# Mechanical properties :
#
#
# Convention : Reuss Voigt Hill
#
# Bulk Modulus (GPa) = 35.50382 35.59363 35.54872
# Shear Modulus (GPa) = -55.88048 19.43917 -18.22065
#
# Velocity S-wave (km/s) = -5.59101 3.29761 -3.19258
# Velocity P-wave (km/s) = 4.67102 5.86600 2.50913
#
# Compressibility (1/GPa) = 0.02816598
#
# Stress axis : x y z
#
# Youngs Moduli (GPa) = 73.21937 73.21872 64.99222
#
# Poissons Ratio (x) = 0.02290 0.22602
# Poissons Ratio (y) = 0.02290 0.22601
# Poissons Ratio (z) = 0.25463 0.25461
#
# Static dielectric constant tensor:
#      x y z
#    x 1.643760 0.000000 0.000000 
#    y 0.000000 1.643750 0.000000 
#    z 0.000000 0.000000 1.576480 
# 
# From -- ./inp_files/7929.got.cif
#   From: 2010.05.17/outbox.cif.g08.bks.cpg/sg137_4_cif.got.tgz:7929.got - 2010.05.20 13:01:12.
