data_PCOD9569301
_publ_section_title
;
Structure prediction by ZEFSAII (Michael W. Deem and Ramdas Pophale) SiO2 
 PCOD9569301
Probable space group: P 42/M N M
;
_chemical_formula_sum "Si O2"
_cell_formula_units_Z 56
_cell_length_a 22.255055
_cell_length_b 22.255055
_cell_length_c 7.504167
_cell_angle_alpha 90.000000
_cell_angle_beta 90.000000
_cell_angle_gamma 90.000000
_cell_volume 3716.719911
_symmetry_space_group_name_H-M "P 42/M N M"
_symmetry_group_IT_number 136
_symmetry_cell_setting 'tetragonal'
loop_
_space_group_symop_operation_xyz
x,y,z
1/2-y,1/2+x,1/2+z
-x,-y,z
1/2+y,1/2-x,1/2+z
1/2+x,1/2-y,1/2-z
1/2-x,1/2+y,1/2-z
y,x,-z
-y,-x,-z
-x,-y,-z
1/2+y,1/2-x,1/2-z
x,y,-z
1/2-y,1/2+x,1/2-z
1/2-x,1/2+y,1/2+z
1/2+x,1/2-y,1/2+z
-y,-x,z
y,x,z
loop_
_atom_site_type_symbol
_atom_site_label
_atom_site_fract_x
_atom_site_fract_y
_atom_site_fract_z
Si Si1 0.820321 0.281786 0.500000
Si Si2 0.684739 0.473745 0.789013
Si Si3 0.612279 0.711801 0.290323
Si Si4 0.223470 0.119400 0.000000
Si Si5 0.452281 0.547720 0.216087
O O1 0.766614 0.233387 0.500000
O O2 0.859822 0.264985 0.327913
O O3 0.786143 0.344709 0.500000
O O4 0.703931 0.542242 0.753537
O O5 0.718032 0.424021 0.670997
O O6 0.615060 0.468536 0.732699
O O7 0.689690 0.461232 0.000000
O O8 0.619422 0.722831 0.500000
O O9 0.651211 0.651211 0.247123
O O10 0.168379 0.168379 0.000000
O O11 0.500000 0.500000 0.284256
O O12 0.454070 0.545931 0.000000
#
# Coordination Sequence:
#
# PCOD9569301 Si02
#       5
#     8  16  16   8   8
#     4   9  20  36  52  69 101 137 173 217 258 305
#     4  11  20  32  50  73 105 138 174 212 252 299
#     4  10  19  32  52  76  99 134 177 217 253 292
#     4  11  22  36  50  74 106 142 176 207 262 311
#     4   9  18  29  43  69 104 145 177 204 239 287
#
# _framework density 15.067048
#
# number of rings (size 3 to 8) (size 9 to 14) (size 15 to 20)
#    0.000    1.857    4.286    0.857    0.000    2.286 
#    0.000    3.571    0.000    0.000    0.000    0.000 
#    0.000    3.429    0.000    0.000    0.000    0.000 
#
# Total GULP energy -312328.099351 kJ/mol
# GULP energy per Si atom -5577.287488 kJ/mol
# Density = 1.503275 g / cm^3
# Si number density = 15.067048 Si / 1000 Ang^3
#
#
#
# Elastic Constant Matrix: (Units=GPa)
#
#
# Indices 1 2 3 4 5 6 
#
# 1 91.1560 86.6541 50.7216 0.0000 0.0000 0.0000
# 2 86.6541 91.1563 50.7219 0.0000 0.0000 0.0000
# 3 50.7216 50.7219 109.3649 0.0000 0.0000 0.0000
# 4 0.0000 0.0000 0.0000 13.3813 0.0000 0.0000
# 5 0.0000 0.0000 0.0000 0.0000 13.3820 0.0000
# 6 0.0000 0.0000 0.0000 0.0000 0.0000 35.3179
#
#
#
# Elastic Compliance Matrix: (Units=1/GPa)
#
#
# Indices 1 2 3 4 5 6 
#
# 1 0.114885 -0.107238 -0.003546 0.000000 0.000000 0.000000
# 2 -0.107238 0.114885 -0.003547 0.000000 0.000000 0.000000
# 3 -0.003546 -0.003547 0.012434 0.000000 0.000000 0.000000
# 4 0.000000 0.000000 0.000000 0.074731 0.000000 0.000000
# 5 0.000000 0.000000 0.000000 0.000000 0.074727 0.000000
# 6 0.000000 0.000000 0.000000 0.000000 0.000000 0.028314
#
#
# Mechanical properties :
#
#
# Convention : Reuss Voigt Hill
#
# Bulk Modulus (GPa) = 73.84756 74.20803 74.02779
# Shear Modulus (GPa) = 7.65517 19.32154 13.48836
#
# Velocity S-wave (km/s) = 2.25649 3.58491 2.99527
# Velocity P-wave (km/s) = 7.47717 8.15440 7.82311
#
# Compressibility (1/GPa) = 0.01354141
#
# Stress axis : x y z
#
# Youngs Moduli (GPa) = 8.70434 8.70433 80.42739
#
# Poissons Ratio (x) = 0.93343 0.28523
# Poissons Ratio (y) = 0.93343 0.28529
# Poissons Ratio (z) = 0.03087 0.03088
#
# Static dielectric constant tensor:
#      x y z
#    x 1.481950 0.000000 0.000000 
#    y 0.000000 1.481950 0.000000 
#    z 0.000000 0.000000 1.528030 
# 
# From -- ./inp_files/1189.got.cif
#   From: 2010.05.17/outbox.cif.g08.bks.cpg/sg136_1_cif.got.tgz:1189.got - 2010.05.20 12:54:53.
