data_PCOD9569195
_publ_section_title
;
Structure prediction by ZEFSAII (Michael W. Deem and Ramdas Pophale) SiO2 
 PCOD9569195
Probable space group: P 42/M N M
;
_chemical_formula_sum "Si O2"
_cell_formula_units_Z 116
_cell_length_a 27.713762
_cell_length_b 27.713762
_cell_length_c 8.094329
_cell_angle_alpha 90.000000
_cell_angle_beta 90.000000
_cell_angle_gamma 90.000000
_cell_volume 6216.870468
_symmetry_space_group_name_H-M "P 42/M N M"
_symmetry_group_IT_number 136
_symmetry_cell_setting 'tetragonal'
loop_
_space_group_symop_operation_xyz
x,y,z
1/2-y,1/2+x,1/2+z
-x,-y,z
1/2+y,1/2-x,1/2+z
1/2+x,1/2-y,1/2-z
1/2-x,1/2+y,1/2-z
y,x,-z
-y,-x,-z
-x,-y,-z
1/2+y,1/2-x,1/2-z
x,y,-z
1/2-y,1/2+x,1/2-z
1/2-x,1/2+y,1/2+z
1/2+x,1/2-y,1/2+z
-y,-x,z
y,x,z
loop_
_atom_site_type_symbol
_atom_site_label
_atom_site_fract_x
_atom_site_fract_y
_atom_site_fract_z
Si Si1 0.671169 0.924495 0.814061
Si Si2 0.881777 0.778112 0.191863
Si Si3 0.304175 0.518177 0.803737
Si Si4 0.817992 0.817992 0.500000
Si Si5 0.656536 0.578949 0.301927
Si Si6 0.698937 0.020183 0.689463
Si Si7 0.842260 0.234632 0.697090
Si Si8 0.379796 0.164418 0.313079
O O1 0.722777 0.898758 0.787807
O O2 0.632649 0.882420 0.792356
O O3 0.667808 0.971472 0.700613
O O4 0.670514 0.943529 0.000000
O O5 0.848491 0.790376 0.348695
O O6 0.930882 0.809699 0.213097
O O7 0.864066 0.783304 0.000000
O O8 0.340880 0.475115 0.765530
O O9 0.252158 0.496052 0.753035
O O10 0.302590 0.527448 0.000000
O O11 0.658883 0.577555 0.500000
O O12 0.609214 0.609214 0.251940
O O13 0.701818 0.611218 0.240617
O O14 0.703249 0.036789 0.500000
O O15 0.679085 0.064677 0.791477
O O16 0.839051 0.237904 0.500000
O O17 0.795585 0.204416 0.758492
O O18 0.849149 0.288062 0.765645
O O19 0.368347 0.151609 0.500000
#
# Coordination Sequence:
#
# PCOD9569195 Si02
#       8
#    16  16  16   4  16  16  16  16
#     4  10  22  40  60  84 115 146 192 240 285 339
#     4  10  22  39  61  86 115 154 195 248 293 340
#     4  10  18  32  55  81 110 147 191 240 293 342
#     4  12  22  40  64  86 121 150 206 240 300 336
#     4  10  19  29  46  75 112 147 184 233 284 346
#     4  10  20  35  58  83 110 144 186 236 285 334
#     4  10  20  34  49  72 109 151 191 229 276 336
#     4  12  23  35  57  83 112 152 192 229 285 342
#
# _framework density 18.658906999999999
#
# number of rings (size 3 to 8) (size 9 to 14) (size 15 to 20)
#    0.000    1.655    2.069    3.517    1.931    2.759 
#    1.241    0.000    0.000    0.414    0.000    3.862 
#    0.000    2.207    0.000    0.000    0.000    0.000 
#
# Total GULP energy -646228.790469 kJ/mol
# GULP energy per Si atom -5570.937849 kJ/mol
# Density = 1.861644 g / cm^3
# Si number density = 18.658907 Si / 1000 Ang^3
#
#
#
# Elastic Constant Matrix: (Units=GPa)
#
#
# Indices 1 2 3 4 5 6 
#
# 1 -99.9634 142.5902 10.1163 0.0000 0.0000 0.0000
# 2 142.5902 -99.9634 10.1163 0.0000 0.0000 0.0000
# 3 10.1163 10.1163 73.0803 0.0000 0.0000 0.0000
# 4 0.0000 0.0000 0.0000 25.5971 0.0000 0.0000
# 5 0.0000 0.0000 0.0000 0.0000 25.5971 0.0000
# 6 0.0000 0.0000 0.0000 0.0000 0.0000 17.0404
#
#
#
# Elastic Compliance Matrix: (Units=1/GPa)
#
#
# Indices 1 2 3 4 5 6 
#
# 1 0.010493 0.014616 -0.003476 0.000000 0.000000 0.000000
# 2 0.014616 0.010493 -0.003476 0.000000 0.000000 0.000000
# 3 -0.003476 -0.003476 0.014646 0.000000 0.000000 0.000000
# 4 0.000000 0.000000 0.000000 0.039067 0.000000 0.000000
# 5 0.000000 0.000000 0.000000 0.000000 0.039067 0.000000
# 6 0.000000 0.000000 0.000000 0.000000 0.000000 0.058684
#
#
# Mechanical properties :
#
#
# Convention : Reuss Voigt Hill
#
# Bulk Modulus (GPa) = 19.62283 22.08880 20.85581
# Shear Modulus (GPa) = 28.71771 -5.66439 11.52666
#
# Velocity S-wave (km/s) = 3.92738 -1.74423 2.48817
# Velocity P-wave (km/s) = 5.57720 2.79418 4.41093
#
# Compressibility (1/GPa) = 0.05096106
#
# Stress axis : x y z
#
# Youngs Moduli (GPa) = 95.29979 95.29979 68.27862
#
# Poissons Ratio (x) = -1.39290 0.23732
# Poissons Ratio (y) = -1.39290 0.23732
# Poissons Ratio (z) = 0.33124 0.33124
#
# Static dielectric constant tensor:
#      x y z
#    x 1.650270 0.000000 0.000000 
#    y 0.000000 1.650270 0.000000 
#    z 0.000000 0.000000 1.646240 
# 
# From -- ./inp_files/2360.got.cif
#   From: 2010.05.17/outbox.cif.g08.bks.cpg/sg136_2_cif.got.tgz:2360.got - 2010.05.20 12:54:53.
