data_PCOD9569347
_publ_section_title
;
Structure prediction by ZEFSAII (Michael W. Deem and Ramdas Pophale) SiO2 
 PCOD9569347
Probable space group: P 42/M N M
;
_chemical_formula_sum "Si O2"
_cell_formula_units_Z 96
_cell_length_a 24.795816
_cell_length_b 24.795816
_cell_length_c 7.884036
_cell_angle_alpha 90.000000
_cell_angle_beta 90.000000
_cell_angle_gamma 90.000000
_cell_volume 4847.361494
_symmetry_space_group_name_H-M "P 42/M N M"
_symmetry_group_IT_number 136
_symmetry_cell_setting 'tetragonal'
loop_
_space_group_symop_operation_xyz
x,y,z
1/2-y,1/2+x,1/2+z
-x,-y,z
1/2+y,1/2-x,1/2+z
1/2+x,1/2-y,1/2-z
1/2-x,1/2+y,1/2-z
y,x,-z
-y,-x,-z
-x,-y,-z
1/2+y,1/2-x,1/2-z
x,y,-z
1/2-y,1/2+x,1/2-z
1/2-x,1/2+y,1/2+z
1/2+x,1/2-y,1/2+z
-y,-x,z
y,x,z
loop_
_atom_site_type_symbol
_atom_site_label
_atom_site_fract_x
_atom_site_fract_y
_atom_site_fract_z
Si Si1 0.206072 0.375923 0.296309
Si Si2 0.620209 0.207300 0.295712
Si Si3 0.185267 0.814733 0.303496
Si Si4 0.803963 0.803963 0.808959
Si Si5 0.500161 0.337453 0.193108
Si Si6 0.602145 0.602145 0.691336
Si Si7 0.278784 0.997955 0.191792
Si Si8 0.886912 0.886912 0.299378
O O1 0.212122 0.377658 0.500000
O O2 0.149978 0.348185 0.246246
O O3 0.253899 0.336041 0.229829
O O4 0.208001 0.438394 0.233047
O O5 0.617347 0.215686 0.500000
O O6 0.662346 0.253724 0.230336
O O7 0.557887 0.208804 0.233045
O O8 0.173907 0.826094 0.500000
O O9 0.147743 0.852258 0.190203
O O10 0.849436 0.849436 0.811789
O O11 0.786908 0.786908 0.000000
O O12 0.447993 0.373136 0.213149
O O13 0.497057 0.285897 0.311051
O O14 0.551921 0.372587 0.233138
O O15 0.504804 0.317184 0.000000
O O16 0.587325 0.587325 0.500000
O O17 0.301286 0.998172 0.000000
O O18 0.875811 0.875811 0.500000
#
# Coordination Sequence:
#
# PCOD9569347 Si02
#       8
#    16  16   8   8  16   8  16   8
#     4  11  23  38  59  89 121 153 190 239 290 343
#     4  10  21  37  58  87 119 154 193 236 287 349
#     4  12  23  37  59  88 119 154 192 235 287 349
#     4  10  19  33  57  84 111 150 192 231 284 344
#     4  11  22  37  57  81 111 152 197 243 291 343
#     4  12  24  38  56  80 112 151 199 248 289 339
#     4  10  21  38  60  84 115 152 191 237 290 347
#     4  10  22  36  54  82 114 147 191 244 290 336
#
# _framework density 19.804587000000001
#
# number of rings (size 3 to 8) (size 9 to 14) (size 15 to 20)
#    0.000    1.333    3.333    3.000    0.000    3.667 
#    0.000    1.667    0.000    0.500    0.000    3.500 
#    0.000    0.000    0.000    0.000    0.000    0.000 
#
# Total GULP energy -535275.395121 kJ/mol
# GULP energy per Si atom -5575.785366 kJ/mol
# Density = 1.975951 g / cm^3
# Si number density = 19.804587 Si / 1000 Ang^3
#
#
#
# Elastic Constant Matrix: (Units=GPa)
#
#
# Indices 1 2 3 4 5 6 
#
# 1 220.3150 -15.0619 11.0362 0.0000 0.0000 0.0000
# 2 -15.0619 220.3162 11.0376 0.0000 0.0000 0.0000
# 3 11.0362 11.0376 26.9294 0.0000 0.0000 0.0000
# 4 0.0000 0.0000 0.0000 81.5159 0.0000 0.0000
# 5 0.0000 0.0000 0.0000 0.0000 81.5225 0.0000
# 6 0.0000 0.0000 0.0000 0.0000 0.0000 34.5743
#
#
#
# Elastic Compliance Matrix: (Units=1/GPa)
#
#
# Indices 1 2 3 4 5 6 
#
# 1 0.004673 0.000424 -0.002089 0.000000 0.000000 0.000000
# 2 0.000424 0.004673 -0.002089 0.000000 0.000000 0.000000
# 3 -0.002089 -0.002089 0.038846 0.000000 0.000000 0.000000
# 4 0.000000 0.000000 0.000000 0.012268 0.000000 0.000000
# 5 0.000000 0.000000 0.000000 0.000000 0.012267 0.000000
# 6 0.000000 0.000000 0.000000 0.000000 0.000000 0.028923
#
#
# Mechanical properties :
#
#
# Convention : Reuss Voigt Hill
#
# Bulk Modulus (GPa) = 24.57954 53.50939 39.04447
# Shear Modulus (GPa) = 40.74402 70.22578 55.48490
#
# Velocity S-wave (km/s) = 4.54067 5.96124 5.29877
# Velocity P-wave (km/s) = 6.31888 8.62897 7.56265
#
# Compressibility (1/GPa) = 0.04068424
#
# Stress axis : x y z
#
# Youngs Moduli (GPa) = 214.01458 214.01466 25.74248
#
# Poissons Ratio (x) = -0.09076 0.05377
# Poissons Ratio (y) = -0.09076 0.05377
# Poissons Ratio (z) = 0.44702 0.44707
#
# Static dielectric constant tensor:
#      x y z
#    x 1.696190 0.000000 0.000000 
#    y 0.000000 1.696190 0.000000 
#    z 0.000000 0.000000 1.740700 
# 
# From -- ./inp_files/2109.got.cif
#   From: 2010.05.17/outbox.cif.g08.bks.cpg/sg136_2_cif.got.tgz:2109.got - 2010.05.20 12:54:53.
