data_PCOD9569290
_publ_section_title
;
Structure prediction by ZEFSAII (Michael W. Deem and Ramdas Pophale) SiO2 
 PCOD9569290
Probable space group: P 42/M N M
;
_chemical_formula_sum "Si O2"
_cell_formula_units_Z 96
_cell_length_a 25.876761
_cell_length_b 25.876761
_cell_length_c 8.880904
_cell_angle_alpha 90.000000
_cell_angle_beta 90.000000
_cell_angle_gamma 90.000000
_cell_volume 5946.713352
_symmetry_space_group_name_H-M "P 42/M N M"
_symmetry_group_IT_number 136
_symmetry_cell_setting 'tetragonal'
loop_
_space_group_symop_operation_xyz
x,y,z
1/2-y,1/2+x,1/2+z
-x,-y,z
1/2+y,1/2-x,1/2+z
1/2+x,1/2-y,1/2-z
1/2-x,1/2+y,1/2-z
y,x,-z
-y,-x,-z
-x,-y,-z
1/2+y,1/2-x,1/2-z
x,y,-z
1/2-y,1/2+x,1/2-z
1/2-x,1/2+y,1/2+z
1/2+x,1/2-y,1/2+z
-y,-x,z
y,x,z
loop_
_atom_site_type_symbol
_atom_site_label
_atom_site_fract_x
_atom_site_fract_y
_atom_site_fract_z
Si Si1 0.812045 0.391521 0.181144
Si Si2 0.803335 0.111288 0.817866
Si Si3 0.108984 0.689630 0.319946
Si Si4 0.002019 0.187868 0.827839
Si Si5 0.500158 0.813318 0.326220
Si Si6 0.308276 0.608778 0.180766
O O1 0.847471 0.347767 0.253462
O O2 0.828870 0.447846 0.241533
O O3 0.751699 0.383991 0.226055
O O4 0.815250 0.389951 0.000000
O O5 0.842557 0.157444 0.784217
O O6 0.747951 0.117919 0.739939
O O7 0.826673 0.055298 0.773062
O O8 0.795462 0.109203 0.000000
O O9 0.109018 0.689024 0.500000
O O10 0.052957 0.672098 0.257238
O O11 0.052527 0.173203 0.735192
O O12 0.000366 0.250569 0.827022
O O13 0.008355 0.170516 0.000000
O O14 0.500282 0.830532 0.500000
O O15 0.345837 0.654164 0.236222
O O16 0.308850 0.609316 0.000000
#
# Coordination Sequence:
#
# PCOD9569290 Si02
#       6
#    16  16  16  16  16  16
#     4  10  19  32  50  72  98 129 163 200 241 284
#     4   9  18  33  51  70  95 127 161 200 247 294
#     4  11  21  32  48  73 102 130 161 197 238 289
#     4   8  15  28  47  69  90 117 156 198 238 282
#     4   9  17  32  51  70  93 124 163 203 240 281
#     4   9  18  31  47  68  94 125 159 194 235 284
#
# _framework density 16.143370999999998
#
# number of rings (size 3 to 8) (size 9 to 14) (size 15 to 20)
#    0.000    2.667    0.000    3.500    0.000    6.000 
#    0.000    1.667    0.000    1.000    0.000    7.000 
#    0.000    0.000    0.000    0.000    0.000    0.000 
#
# Total GULP energy -534851.125943 kJ/mol
# GULP energy per Si atom -5571.365895 kJ/mol
# Density = 1.610663 g / cm^3
# Si number density = 16.143371 Si / 1000 Ang^3
#
#
#
# Elastic Constant Matrix: (Units=GPa)
#
#
# Indices 1 2 3 4 5 6 
#
# 1 105.7563 73.8011 48.6340 0.0000 0.0000 0.0000
# 2 73.8011 105.7563 48.6340 0.0000 0.0000 0.0000
# 3 48.6340 48.6340 72.6584 0.0000 0.0000 0.0000
# 4 0.0000 0.0000 0.0000 23.8652 0.0000 0.0000
# 5 0.0000 0.0000 0.0000 0.0000 23.8652 0.0000
# 6 0.0000 0.0000 0.0000 0.0000 0.0000 -3.2800
#
#
#
# Elastic Compliance Matrix: (Units=1/GPa)
#
#
# Indices 1 2 3 4 5 6 
#
# 1 0.020016 -0.011278 -0.005848 0.000000 0.000000 0.000000
# 2 -0.011278 0.020016 -0.005848 0.000000 0.000000 0.000000
# 3 -0.005848 -0.005848 0.021592 0.000000 0.000000 0.000000
# 4 0.000000 0.000000 0.000000 0.041902 0.000000 0.000000
# 5 0.000000 0.000000 0.000000 0.000000 0.041902 0.000000
# 6 0.000000 0.000000 0.000000 0.000000 0.000000 -0.304877
#
#
# Mechanical properties :
#
#
# Convention : Reuss Voigt Hill
#
# Bulk Modulus (GPa) = 63.80189 69.58992 66.69590
# Shear Modulus (GPa) = -46.17851 16.43021 -14.87415
#
# Velocity S-wave (km/s) = -5.35419 3.19371 -3.03871
# Velocity P-wave (km/s) = 1.17674 7.53662 5.39377
#
# Compressibility (1/GPa) = 0.01567352
#
# Stress axis : x y z
#
# Youngs Moduli (GPa) = 49.96108 49.96108 46.31284
#
# Poissons Ratio (x) = 0.56347 0.27086
# Poissons Ratio (y) = 0.56347 0.27086
# Poissons Ratio (z) = 0.29219 0.29219
#
# Static dielectric constant tensor:
#      x y z
#    x 1.536350 0.000000 0.000000 
#    y 0.000000 1.536350 0.000000 
#    z 0.000000 0.000000 1.546550 
# 
# From -- ./inp_files/1961.got.cif
#   From: 2010.05.17/outbox.cif.g08.bks.cpg/sg136_1_cif.got.tgz:1961.got - 2010.05.20 12:54:53.
