data_PCOD9569741
_publ_section_title
;
Structure prediction by ZEFSAII (Michael W. Deem and Ramdas Pophale) SiO2 
 PCOD9569741
Probable space group: P 42/M N M
;
_chemical_formula_sum "Si O2"
_cell_formula_units_Z 120
_cell_length_a 21.733369
_cell_length_b 21.733369
_cell_length_c 14.541492
_cell_angle_alpha 90.000000
_cell_angle_beta 90.000000
_cell_angle_gamma 90.000000
_cell_volume 6868.518561
_symmetry_space_group_name_H-M "P 42/M N M"
_symmetry_group_IT_number 136
_symmetry_cell_setting 'tetragonal'
loop_
_space_group_symop_operation_xyz
x,y,z
1/2-y,1/2+x,1/2+z
-x,-y,z
1/2+y,1/2-x,1/2+z
1/2+x,1/2-y,1/2-z
1/2-x,1/2+y,1/2-z
y,x,-z
-y,-x,-z
-x,-y,-z
1/2+y,1/2-x,1/2-z
x,y,-z
1/2-y,1/2+x,1/2-z
1/2-x,1/2+y,1/2+z
1/2+x,1/2-y,1/2+z
-y,-x,z
y,x,z
loop_
_atom_site_type_symbol
_atom_site_label
_atom_site_fract_x
_atom_site_fract_y
_atom_site_fract_z
Si Si1 0.241311 0.657899 0.099646
Si Si2 0.321143 0.946705 0.774244
Si Si3 0.949570 0.050431 0.888518
Si Si4 0.852429 0.957961 0.893263
Si Si5 0.929863 0.509303 0.394038
Si Si6 0.128322 0.373850 0.104788
Si Si7 0.736020 0.637013 0.394107
Si Si8 0.233353 0.579763 0.282187
O O1 0.305078 0.694923 0.100857
O O2 0.188645 0.710066 0.105313
O O3 0.238571 0.615160 0.187040
O O4 0.234383 0.626615 0.000000
O O5 0.385015 0.947995 0.833274
O O6 0.333003 0.912520 0.678542
O O7 0.265444 0.915131 0.830561
O O8 0.303413 0.017332 0.762190
O O9 0.977342 0.116344 0.863166
O O10 0.950430 0.049571 0.000000
O O11 0.000000 0.000000 0.857367
O O12 0.906468 0.906468 0.891688
O O13 0.797690 0.937473 0.828425
O O14 0.832126 0.963328 0.000000
O O15 0.931692 0.532393 0.500000
O O16 0.901383 0.440894 0.396146
O O17 0.000000 0.500000 0.361456
O O18 0.120391 0.305647 0.145727
O O19 0.151315 0.374813 0.000000
O O20 0.727864 0.615797 0.500000
O O21 0.673676 0.673676 0.366771
#
# Coordination Sequence:
#
# PCOD9569741 Si02
#       8
#    16  16   8  16  16  16  16  16
#     4   9  18  34  57  82 104 129 172 231 279 312
#     4  11  22  34  52  75 106 145 176 219 264 319
#     4   7  12  26  48  76 109 137 161 199 252 314
#     4   9  17  31  53  80 111 142 170 207 262 326
#     4   9  20  34  52  75 100 133 174 220 266 315
#     4  10  22  36  48  71 106 139 174 219 259 304
#     4   9  18  35  57  77 101 136 179 227 274 315
#     4  11  21  34  53  77 107 141 176 221 261 317
#
# _framework density 17.471015000000001
#
# number of rings (size 3 to 8) (size 9 to 14) (size 15 to 20)
#    0.000    2.467    1.333    2.800    3.733    2.133 
#    1.200    0.000    0.000    1.200    0.000    0.467 
#    0.000    2.667    0.000    0.000    0.000    0.000 
#
# Total GULP energy -669229.889217 kJ/mol
# GULP energy per Si atom -5576.915743 kJ/mol
# Density = 1.743125 g / cm^3
# Si number density = 17.471015 Si / 1000 Ang^3
#
#
#
# Elastic Constant Matrix: (Units=GPa)
#
#
# Indices 1 2 3 4 5 6 
#
# 1 52.7568 0.8424 27.4829 0.0000 0.0000 0.0000
# 2 0.8424 52.7570 27.4828 0.0000 0.0000 0.0000
# 3 27.4829 27.4828 99.5895 0.0000 0.0000 0.0000
# 4 0.0000 0.0000 0.0000 18.3535 0.0000 0.0000
# 5 0.0000 0.0000 0.0000 0.0000 18.3535 0.0000
# 6 0.0000 0.0000 0.0000 0.0000 0.0000 21.3798
#
#
#
# Elastic Compliance Matrix: (Units=1/GPa)
#
#
# Indices 1 2 3 4 5 6 
#
# 1 0.022642 0.003379 -0.007181 0.000000 0.000000 0.000000
# 2 0.003379 0.022642 -0.007181 0.000000 0.000000 0.000000
# 3 -0.007181 -0.007181 0.014004 0.000000 0.000000 0.000000
# 4 0.000000 0.000000 0.000000 0.054485 0.000000 0.000000
# 5 0.000000 0.000000 0.000000 0.000000 0.054486 0.000000
# 6 0.000000 0.000000 0.000000 0.000000 0.000000 0.046773
#
#
# Mechanical properties :
#
#
# Convention : Reuss Voigt Hill
#
# Bulk Modulus (GPa) = 26.79310 35.19105 30.99208
# Shear Modulus (GPa) = 20.04510 21.57036 20.80773
#
# Velocity S-wave (km/s) = 3.39091 3.51755 3.45481
# Velocity P-wave (km/s) = 5.54076 6.05672 5.80448
#
# Compressibility (1/GPa) = 0.03732305
#
# Stress axis : x y z
#
# Youngs Moduli (GPa) = 44.16635 44.16657 71.40593
#
# Poissons Ratio (x) = -0.14925 0.51275
# Poissons Ratio (y) = -0.14925 0.51275
# Poissons Ratio (z) = 0.31715 0.31715
#
# Static dielectric constant tensor:
#      x y z
#    x 1.613370 0.000000 0.000000 
#    y 0.000000 1.613370 0.000000 
#    z 0.000000 0.000000 1.579450 
# 
# From -- ./inp_files/5310.got.cif
#   From: 2010.05.17/outbox.cif.g08.bks.cpg/sg136_3_cif.got.tgz:5310.got - 2010.05.20 12:54:53.
