data_PCOD9569396
_publ_section_title
;
Structure prediction by ZEFSAII (Michael W. Deem and Ramdas Pophale) SiO2 
 PCOD9569396
Probable space group: P 42/M N M
;
_chemical_formula_sum "Si O2"
_cell_formula_units_Z 72
_cell_length_a 20.060620
_cell_length_b 20.060620
_cell_length_c 7.656791
_cell_angle_alpha 90.000000
_cell_angle_beta 90.000000
_cell_angle_gamma 90.000000
_cell_volume 3081.310724
_symmetry_space_group_name_H-M "P 42/M N M"
_symmetry_group_IT_number 136
_symmetry_cell_setting 'tetragonal'
loop_
_space_group_symop_operation_xyz
x,y,z
1/2-y,1/2+x,1/2+z
-x,-y,z
1/2+y,1/2-x,1/2+z
1/2+x,1/2-y,1/2-z
1/2-x,1/2+y,1/2-z
y,x,-z
-y,-x,-z
-x,-y,-z
1/2+y,1/2-x,1/2-z
x,y,-z
1/2-y,1/2+x,1/2-z
1/2-x,1/2+y,1/2+z
1/2+x,1/2-y,1/2+z
-y,-x,z
y,x,z
loop_
_atom_site_type_symbol
_atom_site_label
_atom_site_fract_x
_atom_site_fract_y
_atom_site_fract_z
Si Si1 0.260264 0.848662 0.789082
Si Si2 0.529694 0.102551 0.297264
Si Si3 0.054108 0.945893 0.785511
Si Si4 0.516739 0.700786 0.292778
Si Si5 0.611604 0.226188 0.194628
O O1 0.191914 0.808087 0.759955
O O2 0.251173 0.924907 0.726026
O O3 0.321147 0.803153 0.718973
O O4 0.271517 0.851476 0.000000
O O5 0.519551 0.121308 0.500000
O O6 0.460770 0.078348 0.216049
O O7 0.563912 0.161835 0.196355
O O8 0.127508 0.966461 0.725164
O O9 0.055111 0.944890 0.000000
O O10 0.000000 0.000000 0.732229
O O11 0.527486 0.699724 0.500000
O O12 0.439507 0.719508 0.267999
O O13 0.629341 0.248271 0.000000
#
# Coordination Sequence:
#
# PCOD9569396 Si02
#       5
#    16  16   8  16  16
#     4   9  18  35  58  80 105 149 203 244 286 356
#     4  11  21  35  54  78 113 153 195 238 289 348
#     4   9  18  34  61  93 117 145 195 260 319 378
#     4  10  19  36  61  84 113 154 201 247 305 374
#     4  11  22  34  53  83 116 148 193 248 301 358
#
# _framework density 23.366679999999999
#
# number of rings (size 3 to 8) (size 9 to 14) (size 15 to 20)
#    0.000    1.889    1.111    4.667    0.000    2.667 
#    0.000    1.667    0.000    5.333    0.000    0.000 
#    0.000    0.000    0.000    0.000    0.000    0.000 
#
# Total GULP energy -401980.562614 kJ/mol
# GULP energy per Si atom -5583.063370 kJ/mol
# Density = 2.331350 g / cm^3
# Si number density = 23.366680 Si / 1000 Ang^3
#
#
#
# Elastic Constant Matrix: (Units=GPa)
#
#
# Indices 1 2 3 4 5 6 
#
# 1 98.7722 46.4640 3.7791 0.0000 0.0000 0.0000
# 2 46.4640 98.7723 3.7790 0.0000 0.0000 0.0000
# 3 3.7791 3.7790 59.1131 0.0000 0.0000 0.0000
# 4 0.0000 0.0000 0.0000 8.5373 0.0000 0.0000
# 5 0.0000 0.0000 0.0000 0.0000 8.5372 0.0000
# 6 0.0000 0.0000 0.0000 0.0000 0.0000 19.4710
#
#
#
# Elastic Compliance Matrix: (Units=1/GPa)
#
#
# Indices 1 2 3 4 5 6 
#
# 1 0.013013 -0.006105 -0.000442 0.000000 0.000000 0.000000
# 2 -0.006105 0.013013 -0.000442 0.000000 0.000000 0.000000
# 3 -0.000442 -0.000442 0.016973 0.000000 0.000000 0.000000
# 4 0.000000 0.000000 0.000000 0.117133 0.000000 0.000000
# 5 0.000000 0.000000 0.000000 0.000000 0.117134 0.000000
# 6 0.000000 0.000000 0.000000 0.000000 0.000000 0.051358
#
#
# Mechanical properties :
#
#
# Convention : Reuss Voigt Hill
#
# Bulk Modulus (GPa) = 34.45513 40.52243 37.48878
# Shear Modulus (GPa) = 14.19348 20.81813 17.50580
#
# Velocity S-wave (km/s) = 2.46727 2.98809 2.74008
# Velocity P-wave (km/s) = 4.78477 5.41152 5.10776
#
# Compressibility (1/GPa) = 0.02902325
#
# Stress axis : x y z
#
# Youngs Moduli (GPa) = 76.84685 76.84694 58.91639
#
# Poissons Ratio (x) = 0.46912 0.02602
# Poissons Ratio (y) = 0.46912 0.02602
# Poissons Ratio (z) = 0.03394 0.03394
#
# Static dielectric constant tensor:
#      x y z
#    x 1.885040 0.000000 0.000000 
#    y 0.000000 1.885040 0.000000 
#    z 0.000000 0.000000 1.907630 
# 
# From -- ./inp_files/1563.got.cif
#   From: 2010.05.17/outbox.cif.g08.bks.cpg/sg136_1_cif.got.tgz:1563.got - 2010.05.20 12:54:53.
