data_PCOD9570230
_publ_section_title
;
Structure prediction by ZEFSAII (Michael W. Deem and Ramdas Pophale) SiO2 
 PCOD9570230
Probable space group: P 42/N M C
;
_chemical_formula_sum "Si O2"
_cell_formula_units_Z 104
_cell_length_a 18.366775
_cell_length_b 18.366775
_cell_length_c 17.611011
_cell_angle_alpha 90.000000
_cell_angle_beta 90.000000
_cell_angle_gamma 90.000000
_cell_volume 5940.870694
_symmetry_space_group_name_H-M "P 42/N M C"
_symmetry_group_IT_number 137
_space_group.IT_coordinate_system_code '2'
_symmetry_cell_setting 'tetragonal'
loop_
_space_group_symop_operation_xyz
x,y,z
1/2-y,x,1/2+z
1/2-x,1/2-y,z
y,1/2-x,1/2+z
1/2+x,-y,-z
-x,1/2+y,-z
1/2+y,1/2+x,1/2-z
-y,-x,1/2-z
-x,-y,-z
1/2+y,-x,1/2-z
1/2+x,1/2+y,-z
-y,1/2+x,1/2-z
1/2-x,y,z
x,1/2-y,z
1/2-y,1/2-x,1/2+z
y,x,1/2+z
loop_
_atom_site_type_symbol
_atom_site_label
_atom_site_fract_x
_atom_site_fract_y
_atom_site_fract_z
Si Si1 0.333542 0.061717 0.429715
Si Si2 0.095574 0.164938 0.642918
Si Si3 0.332801 0.832801 0.750000
Si Si4 0.835114 0.540048 0.022529
Si Si5 0.594154 0.054127 0.145116
Si Si6 0.329914 0.023655 0.601888
Si Si7 0.413705 0.477583 0.283297
O O1 0.250000 0.081066 0.412944
O O2 0.385115 0.131524 0.443803
O O3 0.334702 0.020946 0.510553
O O4 0.368541 0.016329 0.361142
O O5 0.116051 0.250000 0.646799
O O6 0.044137 0.155606 0.568401
O O7 0.159785 0.107577 0.626346
O O8 0.057647 0.137306 0.719384
O O9 0.340215 0.750000 0.778704
O O10 0.348281 0.894184 0.813102
O O11 0.750000 0.534860 0.039632
O O12 0.877645 0.475820 0.064786
O O13 0.523121 0.104076 0.134402
O O14 0.573587 0.982883 0.194258
O O15 0.250000 0.997734 0.626060
O O16 0.449329 0.550671 0.250000
#
# Coordination Sequence:
#
# PCOD9570230 Si02
#       7
#    16  16   8  16  16  16  16
#     4   9  20  34  52  78 110 141 180 224 271 329
#     4  10  20  35  53  79 111 141 182 224 270 332
#     4  11  22  34  50  72 100 134 168 214 273 326
#     4   9  20  34  55  79 106 146 182 224 273 319
#     4  11  20  35  54  77 107 137 183 228 264 324
#     4  10  20  35  55  79 107 147 184 224 277 325
#     4  11  20  32  54  79 105 142 173 224 273 313
#
# _framework density 17.505851
#
# number of rings (size 3 to 8) (size 9 to 14) (size 15 to 20)
#    0.000    1.923    2.308    1.385    2.154    2.462 
#    0.000    6.154    0.000    3.692    0.000    0.000 
#    0.000    4.923    0.000    0.000    0.000    0.000 
#
# Total GULP energy -579726.058282 kJ/mol
# GULP energy per Si atom -5574.289022 kJ/mol
# Density = 1.746601 g / cm^3
# Si number density = 17.505851 Si / 1000 Ang^3
#
#
#
# Elastic Constant Matrix: (Units=GPa)
#
#
# Indices 1 2 3 4 5 6 
#
# 1 86.6616 28.9198 26.8311 0.0000 0.0000 0.0000
# 2 28.9198 86.6616 26.8311 0.0000 0.0000 0.0000
# 3 26.8311 26.8311 78.6515 0.0000 0.0000 0.0000
# 4 0.0000 0.0000 0.0000 21.0390 0.0000 0.0000
# 5 0.0000 0.0000 0.0000 0.0000 21.0390 0.0000
# 6 0.0000 0.0000 0.0000 0.0000 0.0000 17.2065
#
#
#
# Elastic Compliance Matrix: (Units=1/GPa)
#
#
# Indices 1 2 3 4 5 6 
#
# 1 0.013799 -0.003519 -0.003507 0.000000 0.000000 0.000000
# 2 -0.003519 0.013799 -0.003507 0.000000 0.000000 0.000000
# 3 -0.003507 -0.003507 0.015107 0.000000 0.000000 0.000000
# 4 0.000000 0.000000 0.000000 0.047531 0.000000 0.000000
# 5 0.000000 0.000000 0.000000 0.000000 0.047531 0.000000
# 6 0.000000 0.000000 0.000000 0.000000 0.000000 0.058118
#
#
# Mechanical properties :
#
#
# Convention : Reuss Voigt Hill
#
# Bulk Modulus (GPa) = 46.21189 46.34878 46.28033
# Shear Modulus (GPa) = 22.30508 23.14974 22.72741
#
# Velocity S-wave (km/s) = 3.57340 3.64043 3.60707
# Velocity P-wave (km/s) = 6.59400 6.64860 6.62136
#
# Compressibility (1/GPa) = 0.02163945
#
# Stress axis : x y z
#
# Youngs Moduli (GPa) = 72.46746 72.46746 66.19434
#
# Poissons Ratio (x) = 0.25503 0.23214
# Poissons Ratio (y) = 0.25503 0.23214
# Poissons Ratio (z) = 0.25414 0.25414
#
# Static dielectric constant tensor:
#      x y z
#    x 1.587160 0.000000 0.000000 
#    y 0.000000 1.587160 0.000000 
#    z 0.000000 0.000000 1.621430 
# 
# From -- ./inp_files/6611.got.cif
#   From: 2010.05.17/outbox.cif.g08.bks.cpg/sg137_4_cif.got.tgz:6611.got - 2010.05.20 13:01:12.
