data_PCOD9570089
_publ_section_title
;
Structure prediction by ZEFSAII (Michael W. Deem and Ramdas Pophale) SiO2 
 PCOD9570089
Probable space group: P 42/N M C
;
_chemical_formula_sum "Si O2"
_cell_formula_units_Z 112
_cell_length_a 14.438120
_cell_length_b 14.438120
_cell_length_c 29.186890
_cell_angle_alpha 90.000000
_cell_angle_beta 90.000000
_cell_angle_gamma 90.000000
_cell_volume 6084.278925
_symmetry_space_group_name_H-M "P 42/N M C"
_symmetry_group_IT_number 137
_space_group.IT_coordinate_system_code '2'
_symmetry_cell_setting 'tetragonal'
loop_
_space_group_symop_operation_xyz
x,y,z
1/2-y,x,1/2+z
1/2-x,1/2-y,z
y,1/2-x,1/2+z
1/2+x,-y,-z
-x,1/2+y,-z
1/2+y,1/2+x,1/2-z
-y,-x,1/2-z
-x,-y,-z
1/2+y,-x,1/2-z
1/2+x,1/2+y,-z
-y,1/2+x,1/2-z
1/2-x,y,z
x,1/2-y,z
1/2-y,1/2-x,1/2+z
y,x,1/2+z
loop_
_atom_site_type_symbol
_atom_site_label
_atom_site_fract_x
_atom_site_fract_y
_atom_site_fract_z
Si Si1 0.354331 0.937568 0.312138
Si Si2 0.024930 0.139282 0.152035
Si Si3 0.946706 0.852924 0.428671
Si Si4 0.146573 0.914943 0.415068
Si Si5 0.038118 0.354340 0.721811
Si Si6 0.642647 0.500226 0.487223
Si Si7 0.862183 0.144427 0.409048
O O1 0.250000 0.900545 0.304757
O O2 0.361526 0.962892 0.365467
O O3 0.435292 0.866061 0.299893
O O4 0.365585 0.021085 0.276062
O O5 0.025694 0.250000 0.153961
O O6 0.096733 0.102695 0.113848
O O7 0.064343 0.097301 0.198952
O O8 0.924154 0.109037 0.132521
O O9 0.911341 0.750000 0.434513
O O10 0.922509 0.916925 0.471731
O O11 0.056393 0.852058 0.419506
O O12 0.250000 0.871567 0.416857
O O13 0.140195 0.980618 0.459113
O O14 0.072810 0.250000 0.712310
O O15 0.750000 0.521923 0.474666
O O16 0.616842 0.410170 0.456427
O O17 0.750000 0.149315 0.407055
O O18 0.897207 0.250000 0.407560
#
# Coordination Sequence:
#
# PCOD9570089 Si02
#       7
#    16  16  16  16  16  16  16
#     4   9  19  34  54  77 102 140 183 226 274 323
#     4  10  20  33  53  82 111 141 182 229 276 331
#     4  11  21  33  51  80 113 144 178 219 272 328
#     4  10  20  35  53  75 104 145 188 229 277 324
#     4  10  19  33  53  79 109 143 179 221 277 334
#     4   9  19  34  53  78 109 144 182 223 268 324
#     4   8  15  30  51  76 107 142 179 220 269 322
#
# _framework density 18.408099
#
# number of rings (size 3 to 8) (size 9 to 14) (size 15 to 20)
#    0.000    2.429    1.429    2.143    0.000    3.143 
#    0.000    4.286    0.000    4.286    0.000    4.000 
#    0.000    0.000    0.000    0.857    0.000    0.000 
#
# Total GULP energy -623872.385596 kJ/mol
# GULP energy per Si atom -5570.289157 kJ/mol
# Density = 1.836620 g / cm^3
# Si number density = 18.408099 Si / 1000 Ang^3
#
#
#
# Elastic Constant Matrix: (Units=GPa)
#
#
# Indices 1 2 3 4 5 6 
#
# 1 94.8043 32.6330 41.3846 0.0000 0.0000 0.0000
# 2 32.6330 94.8043 41.3846 0.0000 0.0000 0.0000
# 3 41.3846 41.3846 113.3825 0.0000 0.0000 0.0000
# 4 0.0000 0.0000 0.0000 -1.0611 0.0000 0.0000
# 5 0.0000 0.0000 0.0000 0.0000 -1.0611 0.0000
# 6 0.0000 0.0000 0.0000 0.0000 0.0000 4.7128
#
#
#
# Elastic Compliance Matrix: (Units=1/GPa)
#
#
# Indices 1 2 3 4 5 6 
#
# 1 0.013185 -0.002900 -0.003754 0.000000 0.000000 0.000000
# 2 -0.002900 0.013185 -0.003754 0.000000 0.000000 0.000000
# 3 -0.003754 -0.003754 0.011560 0.000000 0.000000 0.000000
# 4 0.000000 0.000000 0.000000 -0.942389 0.000000 0.000000
# 5 0.000000 0.000000 0.000000 0.000000 -0.942389 0.000000
# 6 0.000000 0.000000 0.000000 0.000000 0.000000 0.212186
#
#
# Mechanical properties :
#
#
# Convention : Reuss Voigt Hill
#
# Bulk Modulus (GPa) = 58.43084 59.31061 58.87073
# Shear Modulus (GPa) = -3.10918 13.02404 4.95743
#
# Velocity S-wave (km/s) = -1.30104 2.66280 1.64284
# Velocity P-wave (km/s) = 5.43635 6.46095 5.97067
#
# Compressibility (1/GPa) = 0.01711425
#
# Stress axis : x y z
#
# Youngs Moduli (GPa) = 75.84418 75.84418 86.50367
#
# Poissons Ratio (x) = 0.21992 0.32474
# Poissons Ratio (y) = 0.21992 0.32474
# Poissons Ratio (z) = 0.28473 0.28473
#
# Static dielectric constant tensor:
#      x y z
#    x 1.647720 0.000000 0.000000 
#    y 0.000000 1.647720 0.000000 
#    z 0.000000 0.000000 1.674720 
# 
# From -- ./inp_files/10722.got.cif
#   From: 2010.05.17/outbox.cif.g08.bks.cpg/sg137_6_cif.got.tgz:10722.got - 2010.05.20 13:01:12.
