data_PCOD9570258
_publ_section_title
;
Structure prediction by ZEFSAII (Michael W. Deem and Ramdas Pophale) SiO2 
 PCOD9570258
Probable space group: P 42/N M C
;
_chemical_formula_sum "Si O2"
_cell_formula_units_Z 84
_cell_length_a 16.040803
_cell_length_b 16.040803
_cell_length_c 18.395702
_cell_angle_alpha 90.000000
_cell_angle_beta 90.000000
_cell_angle_gamma 90.000000
_cell_volume 4733.349533
_symmetry_space_group_name_H-M "P 42/N M C"
_symmetry_group_IT_number 137
_space_group.IT_coordinate_system_code '2'
_symmetry_cell_setting 'tetragonal'
loop_
_space_group_symop_operation_xyz
x,y,z
1/2-y,x,1/2+z
1/2-x,1/2-y,z
y,1/2-x,1/2+z
1/2+x,-y,-z
-x,1/2+y,-z
1/2+y,1/2+x,1/2-z
-y,-x,1/2-z
-x,-y,-z
1/2+y,-x,1/2-z
1/2+x,1/2+y,-z
-y,1/2+x,1/2-z
1/2-x,y,z
x,1/2-y,z
1/2-y,1/2-x,1/2+z
y,x,1/2+z
loop_
_atom_site_type_symbol
_atom_site_label
_atom_site_fract_x
_atom_site_fract_y
_atom_site_fract_z
Si Si1 0.152790 0.497132 0.017958
Si Si2 0.842267 0.927241 0.413857
Si Si3 0.342715 0.952132 0.445829
Si Si4 0.250000 0.250000 0.896200
Si Si5 0.486273 0.653664 0.757813
Si Si6 0.102293 0.112070 0.376406
O O1 0.250000 0.510276 0.010403
O O2 0.133709 0.418502 0.070016
O O3 0.109806 0.580307 0.046976
O O4 0.118401 0.468130 0.939376
O O5 0.750000 0.886389 0.414972
O O6 0.842994 0.993694 0.479588
O O7 0.852863 0.974256 0.337964
O O8 0.250000 0.915525 0.437853
O O9 0.360887 0.019383 0.382854
O O10 0.322780 0.175974 0.894016
O O11 0.410051 0.589950 0.750000
O O12 0.460525 0.750000 0.746495
O O13 0.557685 0.632327 0.699096
#
# Coordination Sequence:
#
# PCOD9570258 Si02
#       6
#    16  16  16   4  16  16
#     4  11  21  34  54  81 108 142 183 222 267 326
#     4   9  20  35  53  77 107 139 173 220 278 324
#     4  10  20  36  56  77 108 148 179 220 271 323
#     4  12  20  36  60  90 104 132 188 238 272 312
#     4  11  21  36  55  80 112 145 177 218 268 327
#     4  11  21  37  59  82 109 138 184 230 276 323
#
# _framework density 17.746417999999998
#
# number of rings (size 3 to 8) (size 9 to 14) (size 15 to 20)
#    0.000    1.524    2.857    4.571    1.333    0.952 
#    1.714    0.000    0.000    5.714    0.000    0.000 
#    0.000    4.571    0.000    0.000    0.000    0.381 
#
# Total GULP energy -467744.088391 kJ/mol
# GULP energy per Si atom -5568.382005 kJ/mol
# Density = 1.770603 g / cm^3
# Si number density = 17.746418 Si / 1000 Ang^3
#
#
#
# Elastic Constant Matrix: (Units=GPa)
#
#
# Indices 1 2 3 4 5 6 
#
# 1 61.1327 29.6979 3.4534 0.0000 0.0000 0.0000
# 2 29.6979 61.1278 3.4551 0.0000 0.0000 0.0000
# 3 3.4534 3.4551 51.1332 0.0000 0.0000 0.0000
# 4 0.0000 0.0000 0.0000 10.6908 0.0000 0.0000
# 5 0.0000 0.0000 0.0000 0.0000 10.6899 0.0000
# 6 0.0000 0.0000 0.0000 0.0000 0.0000 33.0685
#
#
#
# Elastic Compliance Matrix: (Units=1/GPa)
#
#
# Indices 1 2 3 4 5 6 
#
# 1 0.021440 -0.010374 -0.000747 0.000000 0.000000 0.000000
# 2 -0.010374 0.021441 -0.000748 0.000000 0.000000 0.000000
# 3 -0.000747 -0.000748 0.019658 0.000000 0.000000 0.000000
# 4 0.000000 0.000000 0.000000 0.093538 0.000000 0.000000
# 5 0.000000 0.000000 0.000000 0.000000 0.093546 0.000000
# 6 0.000000 0.000000 0.000000 0.000000 0.000000 0.030240
#
#
# Mechanical properties :
#
#
# Convention : Reuss Voigt Hill
#
# Bulk Modulus (GPa) = 25.77273 27.40073 26.58673
# Shear Modulus (GPa) = 15.79602 20.00899 17.90251
#
# Velocity S-wave (km/s) = 2.98668 3.36146 3.17960
# Velocity P-wave (km/s) = 5.14276 5.52626 5.33796
#
# Compressibility (1/GPa) = 0.03880070
#
# Stress axis : x y z
#
# Youngs Moduli (GPa) = 46.64260 46.63867 50.87048
#
# Poissons Ratio (x) = 0.48382 0.03800
# Poissons Ratio (y) = 0.48386 0.03806
# Poissons Ratio (z) = 0.03484 0.03489
#
# Static dielectric constant tensor:
#      x y z
#    x 1.608740 0.000000 0.000000 
#    y 0.000000 1.608740 0.000000 
#    z 0.000000 0.000000 1.616700 
# 
# From -- ./inp_files/7702.got.cif
#   From: 2010.05.17/outbox.cif.g08.bks.cpg/sg137_4_cif.got.tgz:7702.got - 2010.05.20 13:01:12.
