data_PCOD9570336
_publ_section_title
;
Structure prediction by ZEFSAII (Michael W. Deem and Ramdas Pophale) SiO2 
 PCOD9570336
Probable space group: P 42/N M C
;
_chemical_formula_sum "Si O2"
_cell_formula_units_Z 112
_cell_length_a 14.700847
_cell_length_b 14.700847
_cell_length_c 25.432597
_cell_angle_alpha 90.000000
_cell_angle_beta 90.000000
_cell_angle_gamma 90.000000
_cell_volume 5496.363221
_symmetry_space_group_name_H-M "P 42/N M C"
_symmetry_group_IT_number 137
_space_group.IT_coordinate_system_code '2'
_symmetry_cell_setting 'tetragonal'
loop_
_space_group_symop_operation_xyz
x,y,z
1/2-y,x,1/2+z
1/2-x,1/2-y,z
y,1/2-x,1/2+z
1/2+x,-y,-z
-x,1/2+y,-z
1/2+y,1/2+x,1/2-z
-y,-x,1/2-z
-x,-y,-z
1/2+y,-x,1/2-z
1/2+x,1/2+y,-z
-y,1/2+x,1/2-z
1/2-x,y,z
x,1/2-y,z
1/2-y,1/2-x,1/2+z
y,x,1/2+z
loop_
_atom_site_type_symbol
_atom_site_label
_atom_site_fract_x
_atom_site_fract_y
_atom_site_fract_z
Si Si1 0.524698 0.357812 0.500071
Si Si2 0.646951 0.357429 0.813305
Si Si3 0.857926 0.845290 0.256298
Si Si4 0.604274 0.544950 0.651052
Si Si5 0.645281 0.976654 0.532900
Si Si6 0.577398 0.145295 0.378529
Si Si7 0.648751 0.036148 0.291874
O O1 0.520893 0.250000 0.515015
O O2 0.424651 0.406198 0.496173
O O3 0.592534 0.425757 0.531128
O O4 0.565884 0.361536 0.440828
O O5 0.638396 0.361605 0.750000
O O6 0.750000 0.385670 0.827366
O O7 0.637110 0.250000 0.827684
O O8 0.562174 0.409454 0.838218
O O9 0.750000 0.848380 0.243457
O O10 0.877119 0.750000 0.283680
O O11 0.914899 0.848435 0.202656
O O12 0.879058 0.931338 0.291868
O O13 0.649607 0.552566 0.594043
O O14 0.515248 0.606279 0.645720
O O15 0.750000 0.980848 0.513028
O O16 0.593075 0.250000 0.364941
O O17 0.647661 0.081486 0.348823
O O18 0.585827 0.085827 0.250000
O O19 0.750000 0.042795 0.270096
#
# Coordination Sequence:
#
# PCOD9570336 Si02
#       7
#    16  16  16  16  16  16  16
#     4   9  21  41  62  87 122 156 194 245 302 368
#     4   9  19  33  46  68 106 148 189 229 269 323
#     4  10  21  36  55  82 116 154 197 243 292 347
#     4  11  20  34  56  84 114 149 189 239 289 344
#     4  10  21  37  60  91 119 149 194 246 298 355
#     4  10  21  38  59  84 116 153 192 241 301 357
#     4  11  22  36  55  82 117 154 197 249 295 344
#
# _framework density 20.377110999999999
#
# number of rings (size 3 to 8) (size 9 to 14) (size 15 to 20)
#    0.000    2.000    1.429    2.571    2.000    3.286 
#    0.000    1.429    0.000    3.429    0.000    6.000 
#    0.000    0.000    0.000    0.000    0.000    0.000 
#
# Total GULP energy -624308.721366 kJ/mol
# GULP energy per Si atom -5574.185012 kJ/mol
# Density = 2.033073 g / cm^3
# Si number density = 20.377111 Si / 1000 Ang^3
#
#
#
# Elastic Constant Matrix: (Units=GPa)
#
#
# Indices 1 2 3 4 5 6 
#
# 1 119.7871 43.6330 20.6317 0.0000 0.0000 0.0000
# 2 43.6330 119.7869 20.6318 0.0000 0.0000 0.0000
# 3 20.6317 20.6318 29.5438 0.0000 0.0000 0.0000
# 4 0.0000 0.0000 0.0000 -8.2475 0.0000 0.0000
# 5 0.0000 0.0000 0.0000 0.0000 -8.2477 0.0000
# 6 0.0000 0.0000 0.0000 0.0000 0.0000 21.8975
#
#
#
# Elastic Compliance Matrix: (Units=1/GPa)
#
#
# Indices 1 2 3 4 5 6 
#
# 1 0.010280 -0.002851 -0.005188 0.000000 0.000000 0.000000
# 2 -0.002851 0.010280 -0.005188 0.000000 0.000000 0.000000
# 3 -0.005188 -0.005188 0.041094 0.000000 0.000000 0.000000
# 4 0.000000 0.000000 0.000000 -0.121249 0.000000 0.000000
# 5 0.000000 0.000000 0.000000 0.000000 -0.121245 0.000000
# 6 0.000000 0.000000 0.000000 0.000000 0.000000 0.045667
#
#
# Mechanical properties :
#
#
# Convention : Reuss Voigt Hill
#
# Bulk Modulus (GPa) = 28.40900 48.76788 38.58844
# Shear Modulus (GPa) = -51.55502 13.36187 -19.09658
#
# Velocity S-wave (km/s) = -5.03541 2.56350 -3.06463
# Velocity P-wave (km/s) = 4.45368 5.72247 2.54081
#
# Compressibility (1/GPa) = 0.03520011
#
# Stress axis : x y z
#
# Youngs Moduli (GPa) = 97.27404 97.27374 24.33428
#
# Poissons Ratio (x) = 0.27733 0.12625
# Poissons Ratio (y) = 0.27733 0.12625
# Poissons Ratio (z) = 0.50467 0.50467
#
# Static dielectric constant tensor:
#      x y z
#    x 1.971220 0.000000 0.000000 
#    y 0.000000 1.971220 0.000000 
#    z 0.000000 0.000000 1.720520 
# 
# From -- ./inp_files/9745.got.cif
#   From: 2010.05.17/outbox.cif.g08.bks.cpg/sg137_5_cif.got.tgz:9745.got - 2010.05.20 13:01:12.
