data_PCOD9570083
_publ_section_title
;
Structure prediction by ZEFSAII (Michael W. Deem and Ramdas Pophale) SiO2 
 PCOD9570083
Probable space group: P 42/N M C
;
_chemical_formula_sum "Si O2"
_cell_formula_units_Z 128
_cell_length_a 22.581524
_cell_length_b 22.581524
_cell_length_c 13.192070
_cell_angle_alpha 90.000000
_cell_angle_beta 90.000000
_cell_angle_gamma 90.000000
_cell_volume 6726.969278
_symmetry_space_group_name_H-M "P 42/N M C"
_symmetry_group_IT_number 137
_space_group.IT_coordinate_system_code '2'
_symmetry_cell_setting 'tetragonal'
loop_
_space_group_symop_operation_xyz
x,y,z
1/2-y,x,1/2+z
1/2-x,1/2-y,z
y,1/2-x,1/2+z
1/2+x,-y,-z
-x,1/2+y,-z
1/2+y,1/2+x,1/2-z
-y,-x,1/2-z
-x,-y,-z
1/2+y,-x,1/2-z
1/2+x,1/2+y,-z
-y,1/2+x,1/2-z
1/2-x,y,z
x,1/2-y,z
1/2-y,1/2-x,1/2+z
y,x,1/2+z
loop_
_atom_site_type_symbol
_atom_site_label
_atom_site_fract_x
_atom_site_fract_y
_atom_site_fract_z
Si Si1 0.819403 0.450723 0.821495
Si Si2 0.680440 0.099316 0.033291
Si Si3 0.685671 0.820332 0.259851
Si Si4 0.418785 0.319611 0.586497
Si Si5 0.499936 0.319518 0.297130
Si Si6 0.180289 0.924702 0.596790
Si Si7 0.381822 0.108243 0.883465
Si Si8 0.994907 0.321719 0.888012
O O1 0.750000 0.435293 0.815977
O O2 0.824432 0.519038 0.856312
O O3 0.840296 0.451696 0.705230
O O4 0.841011 0.413459 0.918139
O O5 0.750000 0.117167 0.032196
O O6 0.677794 0.039993 0.101555
O O7 0.636182 0.145174 0.084650
O O8 0.750000 0.843938 0.289187
O O9 0.688088 0.750000 0.258534
O O10 0.634276 0.835571 0.338159
O O11 0.665847 0.842726 0.150545
O O12 0.413247 0.250000 0.555203
O O13 0.414793 0.363691 0.493203
O O14 0.480464 0.250000 0.288166
O O15 0.539376 0.334202 0.199008
O O16 0.446314 0.365539 0.309292
O O17 0.250000 0.911887 0.600726
O O18 0.169605 0.964716 0.496960
O O19 0.445576 0.139156 0.879997
O O20 0.007607 0.250000 0.876642
#
# Coordination Sequence:
#
# PCOD9570083 Si02
#       8
#    16  16  16  16  16  16  16  16
#     4   9  17  35  59  80 106 148 195 234 277 349
#     4  10  20  39  70  94 114 152 194 237 296 369
#     4  10  21  33  47  75 112 147 194 260 315 348
#     4  10  19  33  51  75 108 147 198 253 299 346
#     4  10  21  38  60  87 120 160 201 243 295 353
#     4  10  23  41  62  93 129 154 184 242 310 368
#     4  12  21  33  57  80 109 157 211 248 286 353
#     4  10  22  38  57  83 119 163 202 244 300 351
#
# _framework density 19.027885999999999
#
# number of rings (size 3 to 8) (size 9 to 14) (size 15 to 20)
#    0.000    1.875    2.500    1.875    1.750    1.750 
#    0.000    1.875    2.750    2.250    0.000    3.500 
#    0.000    0.000    0.000    0.000    0.000    0.000 
#
# Total GULP energy -713638.446609 kJ/mol
# GULP energy per Si atom -5575.300364 kJ/mol
# Density = 1.898458 g / cm^3
# Si number density = 19.027886 Si / 1000 Ang^3
#
#
#
# Elastic Constant Matrix: (Units=GPa)
#
#
# Indices 1 2 3 4 5 6 
#
# 1 58.6272 45.2842 16.8328 0.0000 0.0000 0.0000
# 2 45.2842 58.6272 16.8328 0.0000 0.0000 0.0000
# 3 16.8328 16.8328 88.4743 0.0000 0.0000 0.0000
# 4 0.0000 0.0000 0.0000 13.3137 0.0000 0.0000
# 5 0.0000 0.0000 0.0000 0.0000 13.3137 0.0000
# 6 0.0000 0.0000 0.0000 0.0000 0.0000 13.8647
#
#
#
# Elastic Compliance Matrix: (Units=1/GPa)
#
#
# Indices 1 2 3 4 5 6 
#
# 1 0.042601 -0.032345 -0.001951 0.000000 0.000000 0.000000
# 2 -0.032345 0.042601 -0.001951 0.000000 0.000000 0.000000
# 3 -0.001951 -0.001951 0.012045 0.000000 0.000000 0.000000
# 4 0.000000 0.000000 0.000000 0.075111 0.000000 0.000000
# 5 0.000000 0.000000 0.000000 0.000000 0.075111 0.000000
# 6 0.000000 0.000000 0.000000 0.000000 0.000000 0.072126
#
#
# Mechanical properties :
#
#
# Convention : Reuss Voigt Hill
#
# Bulk Modulus (GPa) = 40.40113 40.40316 40.40215
# Shear Modulus (GPa) = 12.48943 16.55035 14.51989
#
# Velocity S-wave (km/s) = 2.56476 2.95243 2.76540
# Velocity P-wave (km/s) = 5.48173 5.73604 5.61033
#
# Compressibility (1/GPa) = 0.02475178
#
# Stress axis : x y z
#
# Youngs Moduli (GPa) = 23.47380 23.47380 83.02071
#
# Poissons Ratio (x) = 0.75926 0.16199
# Poissons Ratio (y) = 0.75926 0.16199
# Poissons Ratio (z) = 0.04580 0.04580
#
# Static dielectric constant tensor:
#      x y z
#    x 1.716850 0.000000 0.000000 
#    y 0.000000 1.716850 0.000000 
#    z 0.000000 0.000000 1.690290 
# 
# From -- ./inp_files/4004.got.cif
#   From: 2010.05.17/outbox.cif.g08.bks.cpg/sg137_3_cif.got.tgz:4004.got - 2010.05.20 13:01:12.
