data_PCOD9570381
_publ_section_title
;
Structure prediction by ZEFSAII (Michael W. Deem and Ramdas Pophale) SiO2 
 PCOD9570381
Probable space group: P 42/N M C
;
_chemical_formula_sum "Si O2"
_cell_formula_units_Z 72
_cell_length_a 12.147808
_cell_length_b 12.147808
_cell_length_c 26.895350
_cell_angle_alpha 90.000000
_cell_angle_beta 90.000000
_cell_angle_gamma 90.000000
_cell_volume 3968.926338
_symmetry_space_group_name_H-M "P 42/N M C"
_symmetry_group_IT_number 137
_space_group.IT_coordinate_system_code '2'
_symmetry_cell_setting 'tetragonal'
loop_
_space_group_symop_operation_xyz
x,y,z
1/2-y,x,1/2+z
1/2-x,1/2-y,z
y,1/2-x,1/2+z
1/2+x,-y,-z
-x,1/2+y,-z
1/2+y,1/2+x,1/2-z
-y,-x,1/2-z
-x,-y,-z
1/2+y,-x,1/2-z
1/2+x,1/2+y,-z
-y,1/2+x,1/2-z
1/2-x,y,z
x,1/2-y,z
1/2-y,1/2-x,1/2+z
y,x,1/2+z
loop_
_atom_site_type_symbol
_atom_site_label
_atom_site_fract_x
_atom_site_fract_y
_atom_site_fract_z
Si Si1 0.750000 0.380427 0.430079
Si Si2 0.118638 0.379728 0.829322
Si Si3 0.124557 0.380044 0.528334
Si Si4 0.948838 0.000120 0.069459
Si Si5 0.115391 0.750000 0.814376
Si Si6 0.456255 0.543746 0.750000
O O1 0.750000 0.250000 0.433285
O O2 0.621853 0.404281 0.446078
O O3 0.750000 0.413536 0.372026
O O4 0.250000 0.390839 0.821321
O O5 0.094048 0.250000 0.836425
O O6 0.089852 0.450882 0.878530
O O7 0.058413 0.433353 0.781917
O O8 0.250000 0.419426 0.539421
O O9 0.127648 0.250000 0.528274
O O10 0.085629 0.418569 0.473763
O O11 0.032629 0.423021 0.566626
O O12 0.250000 0.750000 0.809247
O O13 0.064083 0.856571 0.788545
#
# Coordination Sequence:
#
# PCOD9570381 Si02
#       6
#     8  16  16  16   8   8
#     4  11  20  30  51  87 115 143 180 230 286 335
#     4  11  23  38  59  86 115 149 186 229 283 340
#     4  10  21  38  57  79 112 153 193 233 281 336
#     4  11  21  35  57  83 114 149 189 235 285 338
#     4  11  18  28  53  85 115 143 168 225 293 334
#     4  12  19  34  56  83 116 142 180 224 280 341
#
# _framework density 18.140927999999999
#
# number of rings (size 3 to 8) (size 9 to 14) (size 15 to 20)
#    0.000    1.111    5.556    2.667    0.000    1.778 
#    0.000    1.111    0.000    5.667    0.000    0.000 
#    0.000    0.000    0.000    0.000    0.000    0.000 
#
# Total GULP energy -400957.153737 kJ/mol
# GULP energy per Si atom -5568.849357 kJ/mol
# Density = 1.809964 g / cm^3
# Si number density = 18.140928 Si / 1000 Ang^3
#
#
#
# Elastic Constant Matrix: (Units=GPa)
#
#
# Indices 1 2 3 4 5 6 
#
# 1 86.1177 24.3144 21.4313 0.0000 0.0000 0.0000
# 2 24.3144 86.1161 21.4320 0.0000 0.0000 0.0000
# 3 21.4313 21.4320 54.3827 0.0000 0.0000 0.0000
# 4 0.0000 0.0000 0.0000 21.9410 0.0000 0.0000
# 5 0.0000 0.0000 0.0000 0.0000 21.9418 0.0000
# 6 0.0000 0.0000 0.0000 0.0000 0.0000 27.8882
#
#
#
# Elastic Compliance Matrix: (Units=1/GPa)
#
#
# Indices 1 2 3 4 5 6 
#
# 1 0.013435 -0.002745 -0.004213 0.000000 0.000000 0.000000
# 2 -0.002745 0.013436 -0.004213 0.000000 0.000000 0.000000
# 3 -0.004213 -0.004213 0.021709 0.000000 0.000000 0.000000
# 4 0.000000 0.000000 0.000000 0.045577 0.000000 0.000000
# 5 0.000000 0.000000 0.000000 0.000000 0.045575 0.000000
# 6 0.000000 0.000000 0.000000 0.000000 0.000000 0.035857
#
#
# Mechanical properties :
#
#
# Convention : Reuss Voigt Hill
#
# Bulk Modulus (GPa) = 38.11280 40.10797 39.11039
# Shear Modulus (GPa) = 24.19225 24.98345 24.58785
#
# Velocity S-wave (km/s) = 3.65577 3.71507 3.68554
# Velocity P-wave (km/s) = 6.23494 6.36863 6.30214
#
# Compressibility (1/GPa) = 0.02623790
#
# Stress axis : x y z
#
# Youngs Moduli (GPa) = 74.42993 74.42791 46.06411
#
# Poissons Ratio (x) = 0.20430 0.19406
# Poissons Ratio (y) = 0.20431 0.19408
# Poissons Ratio (z) = 0.31357 0.31358
#
# Static dielectric constant tensor:
#      x y z
#    x 1.691720 0.000000 0.000000 
#    y 0.000000 1.691720 0.000000 
#    z 0.000000 0.000000 0.389970 
# 
# From -- ./inp_files/10227.got.cif
#   From: 2010.05.17/outbox.cif.g08.bks.cpg/sg137_6_cif.got.tgz:10227.got - 2010.05.20 13:01:12.
