data_PCOD9570621
_publ_section_title
;
Structure prediction by ZEFSAII (Michael W. Deem and Ramdas Pophale) SiO2 
 PCOD9570621
Probable space group: P 42/N C M
;
_chemical_formula_sum "Si O2"
_cell_formula_units_Z 116
_cell_length_a 25.489089
_cell_length_b 25.489089
_cell_length_c 8.513903
_cell_angle_alpha 90.000000
_cell_angle_beta 90.000000
_cell_angle_gamma 90.000000
_cell_volume 5531.428784
_symmetry_space_group_name_H-M "P 42/N C M"
_symmetry_group_IT_number 138
_space_group.IT_coordinate_system_code '2'
_symmetry_cell_setting 'tetragonal'
loop_
_space_group_symop_operation_xyz
x,y,z
1/2-y,x,1/2+z
1/2-x,1/2-y,z
y,1/2-x,1/2+z
1/2+x,-y,1/2-z
-x,1/2+y,1/2-z
1/2+y,1/2+x,-z
-y,-x,-z
-x,-y,-z
1/2+y,-x,1/2-z
1/2+x,1/2+y,-z
-y,1/2+x,1/2-z
1/2-x,y,1/2+z
x,1/2-y,1/2+z
1/2-y,1/2-x,z
y,x,z
loop_
_atom_site_type_symbol
_atom_site_label
_atom_site_fract_x
_atom_site_fract_y
_atom_site_fract_z
Si Si1 0.508900 0.144863 0.744630
Si Si2 0.303231 0.110987 0.412495
Si Si3 0.334378 0.500378 0.892249
Si Si4 0.899721 0.389437 0.307873
Si Si5 0.572898 0.264980 0.397472
Si Si6 0.250000 0.750000 0.500000
Si Si7 0.685968 0.898695 0.209070
Si Si8 0.708650 0.353501 0.326148
O O1 0.495873 0.138109 0.561215
O O2 0.553168 0.100964 0.770144
O O3 0.544469 0.195684 0.780137
O O4 0.454253 0.157666 0.828338
O O5 0.337870 0.162131 0.372012
O O6 0.242560 0.110595 0.365841
O O7 0.306807 0.103462 0.601294
O O8 0.326607 0.058262 0.332731
O O9 0.364486 0.542861 0.788706
O O10 0.278949 0.528817 0.927854
O O11 0.890660 0.390660 0.500000
O O12 0.854863 0.351999 0.230908
O O13 0.598065 0.289663 0.551542
O O14 0.623960 0.238229 0.323104
O O15 0.260325 0.697494 0.607681
O O16 0.647484 0.852517 0.161164
#
# Coordination Sequence:
#
# PCOD9570621 Si02
#       8
#    16  16  16  16  16   4  16  16
#     4  10  18  35  60  84 114 152 195 246 299 348
#     4  10  21  38  63  93 125 159 197 241 294 362
#     4   9  18  35  59  87 115 148 199 252 297 349
#     4   9  20  38  62  83 111 149 203 261 306 354
#     4  11  20  37  60  80 101 153 200 247 290 354
#     4  12  28  46  46  72 122 156 186 256 318 352
#     4  10  22  39  63  95 127 160 200 239 294 366
#     4  11  25  38  58  76 111 151 204 246 304 362
#
# _framework density 20.971074999999999
#
# number of rings (size 3 to 8) (size 9 to 14) (size 15 to 20)
#    0.000    1.931    2.759    0.828    0.000    4.690 
#    0.000    2.414    0.000    4.138    0.000    1.931 
#    0.000    0.000    0.000    0.000    0.000    0.000 
#
# Total GULP energy -646197.283212 kJ/mol
# GULP energy per Si atom -5570.666235 kJ/mol
# Density = 2.092334 g / cm^3
# Si number density = 20.971075 Si / 1000 Ang^3
#
#
#
# Elastic Constant Matrix: (Units=GPa)
#
#
# Indices 1 2 3 4 5 6 
#
# 1 96.5410 76.8663 9.7318 0.0000 0.0000 0.0000
# 2 76.8663 96.5410 9.7318 0.0000 0.0000 0.0000
# 3 9.7318 9.7318 22.1781 0.0000 0.0000 0.0000
# 4 0.0000 0.0000 0.0000 20.3300 0.0000 0.0000
# 5 0.0000 0.0000 0.0000 0.0000 20.3300 0.0000
# 6 0.0000 0.0000 0.0000 0.0000 0.0000 19.2027
#
#
#
# Elastic Compliance Matrix: (Units=1/GPa)
#
#
# Indices 1 2 3 4 5 6 
#
# 1 0.028446 -0.022381 -0.002662 0.000000 0.000000 0.000000
# 2 -0.022381 0.028446 -0.002662 0.000000 0.000000 0.000000
# 3 -0.002662 -0.002662 0.047425 0.000000 0.000000 0.000000
# 4 0.000000 0.000000 0.000000 0.049188 0.000000 0.000000
# 5 0.000000 0.000000 0.000000 0.000000 0.049188 0.000000
# 6 0.000000 0.000000 0.000000 0.000000 0.000000 0.052076
#
#
# Mechanical properties :
#
#
# Convention : Reuss Voigt Hill
#
# Bulk Modulus (GPa) = 20.44571 45.32445 32.88508
# Shear Modulus (GPa) = 15.31480 19.90120 17.60800
#
# Velocity S-wave (km/s) = 2.70530 3.08390 2.90079
# Velocity P-wave (km/s) = 4.41915 5.86006 5.18986
#
# Compressibility (1/GPa) = 0.04891002
#
# Stress axis : x y z
#
# Youngs Moduli (GPa) = 35.15408 35.15408 21.08582
#
# Poissons Ratio (x) = 0.78677 0.05612
# Poissons Ratio (y) = 0.78677 0.05612
# Poissons Ratio (z) = 0.09356 0.09356
#
# Static dielectric constant tensor:
#      x y z
#    x 1.787680 0.000000 0.000000 
#    y 0.000000 1.787680 0.000000 
#    z 0.000000 0.000000 1.822310 
# 
# From -- ./inp_files/1921.got.cif
#   From: 2010.05.17/outbox.cif.g08.bks.cpg/sg138_1_cif.got.tgz:1921.got - 2010.05.20 13:08:53.
