data_PCOD9570487
_publ_section_title
;
Structure prediction by ZEFSAII (Michael W. Deem and Ramdas Pophale) SiO2 
 PCOD9570487
Probable space group: P 42/N M C
;
_chemical_formula_sum "Si O2"
_cell_formula_units_Z 64
_cell_length_a 11.069746
_cell_length_b 11.069746
_cell_length_c 27.540115
_cell_angle_alpha 90.000000
_cell_angle_beta 90.000000
_cell_angle_gamma 90.000000
_cell_volume 3374.745767
_symmetry_space_group_name_H-M "P 42/N M C"
_symmetry_group_IT_number 137
_space_group.IT_coordinate_system_code '2'
_symmetry_cell_setting 'tetragonal'
loop_
_space_group_symop_operation_xyz
x,y,z
1/2-y,x,1/2+z
1/2-x,1/2-y,z
y,1/2-x,1/2+z
1/2+x,-y,-z
-x,1/2+y,-z
1/2+y,1/2+x,1/2-z
-y,-x,1/2-z
-x,-y,-z
1/2+y,-x,1/2-z
1/2+x,1/2+y,-z
-y,1/2+x,1/2-z
1/2-x,y,z
x,1/2-y,z
1/2-y,1/2-x,1/2+z
y,x,1/2+z
loop_
_atom_site_type_symbol
_atom_site_label
_atom_site_fract_x
_atom_site_fract_y
_atom_site_fract_z
Si Si1 0.250000 0.392782 0.863082
Si Si2 0.897962 0.750000 0.747732
Si Si3 0.484576 0.005851 0.400913
Si Si4 0.250000 0.889009 0.452204
Si Si5 0.750000 0.102766 0.431260
Si Si6 0.108337 0.496249 0.204507
O O1 0.250000 0.250000 0.858097
O O2 0.250000 0.441097 0.807828
O O3 0.362024 0.434533 0.893367
O O4 0.750000 0.750000 0.746949
O O5 0.938453 0.632006 0.775987
O O6 0.626554 0.029304 0.415464
O O7 0.379953 0.942555 0.433705
O O8 0.474989 0.948090 0.347187
O O9 0.250000 0.750000 0.436223
O O10 0.250000 0.896468 0.510385
O O11 0.750000 0.250000 0.416448
O O12 0.083838 0.583838 0.250000
O O13 0.250000 0.487248 0.196847
#
# Coordination Sequence:
#
# PCOD9570487 Si02
#       6
#     8   8  16   8   8  16
#     4  11  20  36  64  94 122 171 219 262 319 390
#     4   9  19  37  54  84 125 166 213 261 312 387
#     4  12  23  43  68  95 135 173 219 281 335 404
#     4  11  26  46  70 100 132 169 226 287 343 404
#     4  11  25  45  71 101 132 172 225 285 347 402
#     4  11  23  37  60  92 129 172 216 265 329 400
#
# _framework density 18.964392
#
# number of rings (size 3 to 8) (size 9 to 14) (size 15 to 20)
#    0.000    1.000    5.000    2.250    1.750    0.250 
#    0.000    1.875    2.750    0.000    0.000    0.000 
#    0.000    0.000    0.000    0.000    0.000    0.000 
#
# Total GULP energy -356271.896118 kJ/mol
# GULP energy per Si atom -5566.748377 kJ/mol
# Density = 1.892123 g / cm^3
# Si number density = 18.964392 Si / 1000 Ang^3
#
#
#
# Elastic Constant Matrix: (Units=GPa)
#
#
# Indices 1 2 3 4 5 6 
#
# 1 109.7792 38.0997 33.7078 0.0000 0.0000 0.0000
# 2 38.0997 109.7792 33.7078 0.0000 0.0000 0.0000
# 3 33.7078 33.7078 78.5750 0.0000 0.0000 0.0000
# 4 0.0000 0.0000 0.0000 18.8052 0.0000 0.0000
# 5 0.0000 0.0000 0.0000 0.0000 18.8052 0.0000
# 6 0.0000 0.0000 0.0000 0.0000 0.0000 40.1845
#
#
#
# Elastic Compliance Matrix: (Units=1/GPa)
#
#
# Indices 1 2 3 4 5 6 
#
# 1 0.011179 -0.002772 -0.003606 0.000000 0.000000 0.000000
# 2 -0.002772 0.011179 -0.003606 0.000000 0.000000 0.000000
# 3 -0.003606 -0.003606 0.015821 0.000000 0.000000 0.000000
# 4 0.000000 0.000000 0.000000 0.053177 0.000000 0.000000
# 5 0.000000 0.000000 0.000000 0.000000 0.053177 0.000000
# 6 0.000000 0.000000 0.000000 0.000000 0.000000 0.024885
#
#
# Mechanical properties :
#
#
# Convention : Reuss Voigt Hill
#
# Bulk Modulus (GPa) = 54.91940 56.57379 55.74659
# Shear Modulus (GPa) = 25.58126 28.40020 26.99073
#
# Velocity S-wave (km/s) = 3.67674 3.87402 3.77667
# Velocity P-wave (km/s) = 6.85905 7.06449 6.96253
#
# Compressibility (1/GPa) = 0.01820850
#
# Stress axis : x y z
#
# Youngs Moduli (GPa) = 89.45626 89.45626 63.20812
#
# Poissons Ratio (x) = 0.24800 0.22794
# Poissons Ratio (y) = 0.24800 0.22794
# Poissons Ratio (z) = 0.32260 0.32260
#
# Static dielectric constant tensor:
#      x y z
#    x 1.691880 0.000000 0.000000 
#    y 0.000000 1.691880 0.000000 
#    z 0.000000 0.000000 1.743490 
# 
# From -- ./inp_files/8640.got.cif
#   From: 2010.05.17/outbox.cif.g08.bks.cpg/sg137_5_cif.got.tgz:8640.got - 2010.05.20 13:01:12.
