data_PCOD9570924
_publ_section_title
;
Structure prediction by ZEFSAII (Michael W. Deem and Ramdas Pophale) SiO2 
 PCOD9570924
Probable space group: P 42/N C M
;
_chemical_formula_sum "Si O2"
_cell_formula_units_Z 48
_cell_length_a 12.819917
_cell_length_b 12.819917
_cell_length_c 12.287458
_cell_angle_alpha 90.000000
_cell_angle_beta 90.000000
_cell_angle_gamma 90.000000
_cell_volume 2019.447063
_symmetry_space_group_name_H-M "P 42/N C M"
_symmetry_group_IT_number 138
_space_group.IT_coordinate_system_code '2'
_symmetry_cell_setting 'tetragonal'
loop_
_space_group_symop_operation_xyz
x,y,z
1/2-y,x,1/2+z
1/2-x,1/2-y,z
y,1/2-x,1/2+z
1/2+x,-y,1/2-z
-x,1/2+y,1/2-z
1/2+y,1/2+x,-z
-y,-x,-z
-x,-y,-z
1/2+y,-x,1/2-z
1/2+x,1/2+y,-z
-y,1/2+x,1/2-z
1/2-x,y,1/2+z
x,1/2-y,1/2+z
1/2-y,1/2-x,z
y,x,z
loop_
_atom_site_type_symbol
_atom_site_label
_atom_site_fract_x
_atom_site_fract_y
_atom_site_fract_z
Si Si1 0.056449 0.611814 0.254057
Si Si2 0.247001 0.420159 0.401916
Si Si3 0.592156 0.271668 0.578904
O O1 0.977567 0.522434 0.292915
O O2 0.985720 0.700645 0.195543
O O3 0.133837 0.568873 0.162205
O O4 0.120045 0.670988 0.348444
O O5 0.140822 0.359178 0.374662
O O6 0.332347 0.332347 0.429363
O O7 0.238008 0.494874 0.505493
O O8 0.676941 0.323060 0.500000
#
# Coordination Sequence:
#
# PCOD9570924 Si02
#       3
#    16  16  16
#     4  10  21  38  62  92 125 162 204 250 302 362
#     4   9  18  34  59  92 125 157 198 249 304 361
#     4  10  21  39  62  86 122 164 204 250 305 361
#
# _framework density 23.768882000000001
#
# number of rings (size 3 to 8) (size 9 to 14) (size 15 to 20)
#    0.000    2.333    0.000    2.000    0.000    7.333 
#    0.000   15.000    0.000   10.000    0.000    0.000 
#    0.000    0.000    0.000    0.000    0.000    0.000 
#
# Total GULP energy -268583.687632 kJ/mol
# GULP energy per Si atom -5595.493492 kJ/mol
# Density = 2.371478 g / cm^3
# Si number density = 23.768882 Si / 1000 Ang^3
#
#
#
# Elastic Constant Matrix: (Units=GPa)
#
#
# Indices 1 2 3 4 5 6 
#
# 1 86.9293 57.2315 38.6650 0.0000 0.0000 0.0000
# 2 57.2315 86.9279 38.6642 0.0000 0.0000 0.0000
# 3 38.6650 38.6642 78.8838 0.0000 0.0000 0.0000
# 4 0.0000 0.0000 0.0000 34.0825 0.0000 0.0000
# 5 0.0000 0.0000 0.0000 0.0000 34.0831 0.0000
# 6 0.0000 0.0000 0.0000 0.0000 0.0000 66.1216
#
#
#
# Elastic Compliance Matrix: (Units=1/GPa)
#
#
# Indices 1 2 3 4 5 6 
#
# 1 0.021542 -0.012131 -0.004613 0.000000 0.000000 0.000000
# 2 -0.012131 0.021542 -0.004613 0.000000 0.000000 0.000000
# 3 -0.004613 -0.004613 0.017199 0.000000 0.000000 0.000000
# 4 0.000000 0.000000 0.000000 0.029341 0.000000 0.000000
# 5 0.000000 0.000000 0.000000 0.000000 0.029340 0.000000
# 6 0.000000 0.000000 0.000000 0.000000 0.000000 0.015124
#
#
# Mechanical properties :
#
#
# Convention : Reuss Voigt Hill
#
# Bulk Modulus (GPa) = 56.91611 57.98472 57.45041
# Shear Modulus (GPa) = 27.37364 34.73614 31.05489
#
# Velocity S-wave (km/s) = 3.39729 3.82699 3.61852
# Velocity P-wave (km/s) = 6.27586 6.63144 6.45610
#
# Compressibility (1/GPa) = 0.01756972
#
# Stress axis : x y z
#
# Youngs Moduli (GPa) = 46.42073 46.42035 58.14365
#
# Poissons Ratio (x) = 0.56313 0.26821
# Poissons Ratio (y) = 0.56313 0.26820
# Poissons Ratio (z) = 0.21414 0.21412
#
# Static dielectric constant tensor:
#      x y z
#    x 1.906370 0.000000 0.000000 
#    y 0.000000 1.906370 0.000000 
#    z 0.000000 0.000000 1.896010 
# 
# From -- ./inp_files/2275.got.cif
#   From: 2010.05.17/outbox.cif.g08.bks.cpg/sg138_2_cif.got.tgz:2275.got - 2010.05.20 13:08:53.
