data_PCOD9570617
_publ_section_title
;
Structure prediction by ZEFSAII (Michael W. Deem and Ramdas Pophale) SiO2 
 PCOD9570617
Probable space group: P 42/N C M
;
_chemical_formula_sum "Si O2"
_cell_formula_units_Z 60
_cell_length_a 11.862604
_cell_length_b 11.862604
_cell_length_c 22.297710
_cell_angle_alpha 90.000000
_cell_angle_beta 90.000000
_cell_angle_gamma 90.000000
_cell_volume 3137.764381
_symmetry_space_group_name_H-M "P 42/N C M"
_symmetry_group_IT_number 138
_space_group.IT_coordinate_system_code '2'
_symmetry_cell_setting 'tetragonal'
loop_
_space_group_symop_operation_xyz
x,y,z
1/2-y,x,1/2+z
1/2-x,1/2-y,z
y,1/2-x,1/2+z
1/2+x,-y,1/2-z
-x,1/2+y,1/2-z
1/2+y,1/2+x,-z
-y,-x,-z
-x,-y,-z
1/2+y,-x,1/2-z
1/2+x,1/2+y,-z
-y,1/2+x,1/2-z
1/2-x,y,1/2+z
x,1/2-y,1/2+z
1/2-y,1/2-x,z
y,x,z
loop_
_atom_site_type_symbol
_atom_site_label
_atom_site_fract_x
_atom_site_fract_y
_atom_site_fract_z
Si Si1 0.769112 0.051138 0.337017
Si Si2 0.259076 0.573792 0.022193
Si Si3 0.409632 0.090369 0.972906
Si Si4 0.250000 0.750000 0.250000
Si Si5 0.038322 0.038322 0.336821
Si Si6 0.659727 0.659727 0.773336
O O1 0.739306 0.069844 0.406180
O O2 0.719925 0.147209 0.293693
O O3 0.904396 0.057623 0.333249
O O4 0.723333 0.932847 0.313340
O O5 0.166865 0.666865 0.000000
O O6 0.378709 0.621292 0.000000
O O7 0.210136 0.456034 0.996603
O O8 0.418482 0.081519 0.901358
O O9 0.500000 0.000000 0.000000
O O10 0.099664 0.099664 0.282384
O O11 0.750000 0.750000 0.750901
#
# Coordination Sequence:
#
# PCOD9570617 Si02
#       6
#    16  16   8   4   8   8
#     4  12  23  40  65  96 126 174 221 273 326 404
#     4  10  19  34  61  95 121 157 218 271 321 393
#     4  10  18  34  62  89 117 164 206 264 321 386
#     4  12  24  36  66  96 120 172 232 262 332 396
#     4  12  22  43  63  88 130 171 221 261 335 402
#     4  12  28  42  64  97 140 174 218 289 332 387
#
# _framework density 19.121896
#
# number of rings (size 3 to 8) (size 9 to 14) (size 15 to 20)
#    0.000    0.800    9.333    1.600    0.000    0.000 
#    0.000    0.667    2.933    0.000    0.000    0.000 
#    0.000    0.000    0.000    0.000    0.000    0.000 
#
# Total GULP energy -335062.025630 kJ/mol
# GULP energy per Si atom -5584.367094 kJ/mol
# Density = 1.907837 g / cm^3
# Si number density = 19.121896 Si / 1000 Ang^3
#
#
#
# Elastic Constant Matrix: (Units=GPa)
#
#
# Indices 1 2 3 4 5 6 
#
# 1 75.3097 59.2112 59.6253 0.0000 0.0000 0.0000
# 2 59.2112 75.3104 59.6257 0.0000 0.0000 0.0000
# 3 59.6253 59.6257 196.1256 0.0000 0.0000 0.0000
# 4 0.0000 0.0000 0.0000 1.3913 0.0000 0.0000
# 5 0.0000 0.0000 0.0000 0.0000 1.3949 0.0000
# 6 0.0000 0.0000 0.0000 0.0000 0.0000 35.6984
#
#
#
# Elastic Compliance Matrix: (Units=1/GPa)
#
#
# Indices 1 2 3 4 5 6 
#
# 1 0.036147 -0.025970 -0.003094 0.000000 0.000000 0.000000
# 2 -0.025970 0.036146 -0.003094 0.000000 0.000000 0.000000
# 3 -0.003094 -0.003094 0.006980 0.000000 0.000000 0.000000
# 4 0.000000 0.000000 0.000000 0.718733 0.000000 0.000000
# 5 0.000000 0.000000 0.000000 0.000000 0.716908 0.000000
# 6 0.000000 0.000000 0.000000 0.000000 0.000000 0.028012
#
#
# Mechanical properties :
#
#
# Convention : Reuss Voigt Hill
#
# Bulk Modulus (GPa) = 66.85618 78.18557 72.52087
# Shear Modulus (GPa) = 3.10130 18.91582 11.00856
#
# Velocity S-wave (km/s) = 1.27490 3.14860 2.40199
# Velocity P-wave (km/s) = 6.09969 7.36173 6.76022
#
# Compressibility (1/GPa) = 0.01495748
#
# Stress axis : x y z
#
# Youngs Moduli (GPa) = 27.66519 27.66537 143.26856
#
# Poissons Ratio (x) = 0.71847 0.44324
# Poissons Ratio (y) = 0.71847 0.44325
# Poissons Ratio (z) = 0.08559 0.08559
#
# Static dielectric constant tensor:
#      x y z
#    x 1.679770 0.000000 0.000000 
#    y 0.000000 1.679770 0.000000 
#    z 0.000000 0.000000 1.621250 
# 
# From -- ./inp_files/5905.got.cif
#   From: 2010.05.17/outbox.cif.g08.bks.cpg/sg138_3_cif.got.tgz:5905.got - 2010.05.20 13:08:53.
