data_PCOD9570636
_publ_section_title
;
Structure prediction by ZEFSAII (Michael W. Deem and Ramdas Pophale) SiO2 
 PCOD9570636
Probable space group: P 42/N C M
;
_chemical_formula_sum "Si O2"
_cell_formula_units_Z 80
_cell_length_a 30.078203
_cell_length_b 30.078203
_cell_length_c 5.094788
_cell_angle_alpha 90.000000
_cell_angle_beta 90.000000
_cell_angle_gamma 90.000000
_cell_volume 4609.246021
_symmetry_space_group_name_H-M "P 42/N C M"
_symmetry_group_IT_number 138
_space_group.IT_coordinate_system_code '2'
_symmetry_cell_setting 'tetragonal'
loop_
_space_group_symop_operation_xyz
x,y,z
1/2-y,x,1/2+z
1/2-x,1/2-y,z
y,1/2-x,1/2+z
1/2+x,-y,1/2-z
-x,1/2+y,1/2-z
1/2+y,1/2+x,-z
-y,-x,-z
-x,-y,-z
1/2+y,-x,1/2-z
1/2+x,1/2+y,-z
-y,1/2+x,1/2-z
1/2-x,y,1/2+z
x,1/2-y,1/2+z
1/2-y,1/2-x,z
y,x,z
loop_
_atom_site_type_symbol
_atom_site_label
_atom_site_fract_x
_atom_site_fract_y
_atom_site_fract_z
Si Si1 0.366812 0.437668 0.835318
Si Si2 0.091506 0.019045 0.343548
Si Si3 0.079660 0.878920 0.739123
Si Si4 0.443818 0.777368 0.375762
Si Si5 0.448674 0.274329 0.101182
O O1 0.390613 0.390613 0.805087
O O2 0.393920 0.465455 0.054310
O O3 0.318620 0.433050 0.958251
O O4 0.373416 0.462662 0.559459
O O5 0.044622 0.044622 0.401793
O O6 0.096442 0.966266 0.342556
O O7 0.113402 0.886599 0.500000
O O8 0.070554 0.827085 0.800488
O O9 0.098401 0.901600 0.000000
O O10 0.429360 0.758300 0.656452
O O11 0.497658 0.777639 0.388299
O O12 0.435088 0.264763 0.399047
#
# Coordination Sequence:
#
# PCOD9570636 Si02
#       5
#    16  16  16  16  16
#     4  10  19  33  51  71 103 139 178 217 259 305
#     4  10  21  35  51  71 106 150 185 214 247 290
#     4  12  24  36  55  79 109 139 182 223 249 303
#     4  10  21  36  55  76 104 136 168 211 270 315
#     4  10  19  30  52  76  98 129 175 219 262 316
#
# _framework density 17.356417
#
# number of rings (size 3 to 8) (size 9 to 14) (size 15 to 20)
#    0.000    1.600    2.000    3.600    5.600    0.800 
#    0.000    0.000    0.000    0.000    0.000    0.000 
#    0.000   30.400    0.000    0.000    0.000    0.000 
#
# Total GULP energy -446206.971244 kJ/mol
# GULP energy per Si atom -5577.587141 kJ/mol
# Density = 1.731691 g / cm^3
# Si number density = 17.356417 Si / 1000 Ang^3
#
#
#
# Elastic Constant Matrix: (Units=GPa)
#
#
# Indices 1 2 3 4 5 6 
#
# 1 57.7919 38.6695 23.7833 0.0000 0.0000 0.0000
# 2 38.6695 57.7955 23.7814 0.0000 0.0000 0.0000
# 3 23.7833 23.7814 84.8847 0.0000 0.0000 0.0000
# 4 0.0000 0.0000 0.0000 19.3853 0.0000 0.0000
# 5 0.0000 0.0000 0.0000 0.0000 19.3877 0.0000
# 6 0.0000 0.0000 0.0000 0.0000 0.0000 10.4249
#
#
#
# Elastic Compliance Matrix: (Units=1/GPa)
#
#
# Indices 1 2 3 4 5 6 
#
# 1 0.032161 -0.020131 -0.003371 0.000000 0.000000 0.000000
# 2 -0.020131 0.032158 -0.003369 0.000000 0.000000 0.000000
# 3 -0.003371 -0.003369 0.013669 0.000000 0.000000 0.000000
# 4 0.000000 0.000000 0.000000 0.051585 0.000000 0.000000
# 5 0.000000 0.000000 0.000000 0.000000 0.051579 0.000000
# 6 0.000000 0.000000 0.000000 0.000000 0.000000 0.095924
#
#
# Mechanical properties :
#
#
# Convention : Reuss Voigt Hill
#
# Bulk Modulus (GPa) = 41.24441 41.43784 41.34113
# Shear Modulus (GPa) = 14.75365 17.45545 16.10455
#
# Velocity S-wave (km/s) = 2.91871 3.17473 3.04941
# Velocity P-wave (km/s) = 5.93071 6.11269 6.02239
#
# Compressibility (1/GPa) = 0.02424571
#
# Stress axis : x y z
#
# Youngs Moduli (GPa) = 31.09397 31.09683 73.15792
#
# Poissons Ratio (x) = 0.62600 0.24661
# Poissons Ratio (y) = 0.62594 0.24647
# Poissons Ratio (z) = 0.10482 0.10477
#
# Static dielectric constant tensor:
#      x y z
#    x 1.602100 0.000000 0.000000 
#    y 0.000000 1.602100 0.000000 
#    z 0.000000 0.000000 1.608930 
# 
# From -- ./inp_files/465.got.cif
#   From: 2010.05.17/outbox.cif.g08.bks.cpg/sg138_1_cif.got.tgz:465.got - 2010.05.20 13:08:53.
