data_PCOD9570960
_publ_section_title
;
Structure prediction by ZEFSAII (Michael W. Deem and Ramdas Pophale) SiO2 
 PCOD9570960
Probable space group: P 42/N C M
;
_chemical_formula_sum "Si O2"
_cell_formula_units_Z 80
_cell_length_a 18.503944
_cell_length_b 18.503944
_cell_length_c 12.420109
_cell_angle_alpha 90.000000
_cell_angle_beta 90.000000
_cell_angle_gamma 90.000000
_cell_volume 4252.594940
_symmetry_space_group_name_H-M "P 42/N C M"
_symmetry_group_IT_number 138
_space_group.IT_coordinate_system_code '2'
_symmetry_cell_setting 'tetragonal'
loop_
_space_group_symop_operation_xyz
x,y,z
1/2-y,x,1/2+z
1/2-x,1/2-y,z
y,1/2-x,1/2+z
1/2+x,-y,1/2-z
-x,1/2+y,1/2-z
1/2+y,1/2+x,-z
-y,-x,-z
-x,-y,-z
1/2+y,-x,1/2-z
1/2+x,1/2+y,-z
-y,1/2+x,1/2-z
1/2-x,y,1/2+z
x,1/2-y,1/2+z
1/2-y,1/2-x,z
y,x,z
loop_
_atom_site_type_symbol
_atom_site_label
_atom_site_fract_x
_atom_site_fract_y
_atom_site_fract_z
Si Si1 0.356436 0.474744 0.579952
Si Si2 0.031965 0.148700 0.324210
Si Si3 0.723380 0.168940 0.608623
Si Si4 0.125097 0.630688 0.189384
Si Si5 0.631607 0.749735 0.301530
O O1 0.428989 0.428989 0.606924
O O2 0.352933 0.481295 0.451654
O O3 0.360348 0.553324 0.634790
O O4 0.289610 0.423726 0.616990
O O5 0.079957 0.079957 0.296449
O O6 0.080038 0.216923 0.289675
O O7 0.955816 0.139847 0.266630
O O8 0.750000 0.250000 0.627828
O O9 0.675612 0.175612 0.500000
O O10 0.801078 0.130189 0.607315
O O11 0.679306 0.140819 0.710778
O O12 0.684323 0.815678 0.341141
O O13 0.687405 0.687405 0.264425
#
# Coordination Sequence:
#
# PCOD9570960 Si02
#       5
#    16  16  16  16  16
#     4  10  22  37  57  87 115 149 191 233 287 345
#     4  10  22  36  58  87 114 150 192 233 287 345
#     4  11  25  39  55  84 113 143 195 233 281 335
#     4  12  21  39  59  82 116 152 187 235 284 338
#     4   9  19  37  59  83 113 147 190 242 288 337
#
# _framework density 18.812044
#
# number of rings (size 3 to 8) (size 9 to 14) (size 15 to 20)
#    0.000    1.600    2.000    2.400    5.600    2.400 
#    0.000    4.000    0.000    4.800    0.000    0.000 
#    0.000    0.800    0.000    0.000    0.000    0.000 
#
# Total GULP energy -445774.199052 kJ/mol
# GULP energy per Si atom -5572.177488 kJ/mol
# Density = 1.876923 g / cm^3
# Si number density = 18.812044 Si / 1000 Ang^3
#
#
#
# Elastic Constant Matrix: (Units=GPa)
#
#
# Indices 1 2 3 4 5 6 
#
# 1 117.6795 44.2057 21.7293 0.0000 0.0000 0.0000
# 2 44.2057 117.6795 21.7293 0.0000 0.0000 0.0000
# 3 21.7293 21.7293 40.1546 0.0000 0.0000 0.0000
# 4 0.0000 0.0000 0.0000 -22.7643 0.0000 0.0000
# 5 0.0000 0.0000 0.0000 0.0000 -22.7643 0.0000
# 6 0.0000 0.0000 0.0000 0.0000 0.0000 13.5115
#
#
#
# Elastic Compliance Matrix: (Units=1/GPa)
#
#
# Indices 1 2 3 4 5 6 
#
# 1 0.010419 -0.003192 -0.003911 0.000000 0.000000 0.000000
# 2 -0.003192 0.010419 -0.003911 0.000000 0.000000 0.000000
# 3 -0.003911 -0.003911 0.029136 0.000000 0.000000 0.000000
# 4 0.000000 0.000000 0.000000 -0.043928 0.000000 0.000000
# 5 0.000000 0.000000 0.000000 0.000000 -0.043928 0.000000
# 6 0.000000 0.000000 0.000000 0.000000 0.000000 0.074011
#
#
# Mechanical properties :
#
#
# Convention : Reuss Voigt Hill
#
# Bulk Modulus (GPa) = 35.78190 50.09357 42.93774
# Shear Modulus (GPa) = 74.10650 6.11986 40.11318
#
# Velocity S-wave (km/s) = 6.28320 1.80561 4.62271
# Velocity P-wave (km/s) = 8.46760 5.57075 7.16706
#
# Compressibility (1/GPa) = 0.02794709
#
# Stress axis : x y z
#
# Youngs Moduli (GPa) = 95.98124 95.98124 34.32130
#
# Poissons Ratio (x) = 0.30633 0.13423
# Poissons Ratio (y) = 0.30633 0.13423
# Poissons Ratio (z) = 0.37537 0.37537
#
# Static dielectric constant tensor:
#      x y z
#    x 1.731820 0.000000 0.000000 
#    y 0.000000 1.731820 0.000000 
#    z 0.000000 0.000000 1.651420 
# 
# From -- ./inp_files/4116.got.cif
#   From: 2010.05.17/outbox.cif.g08.bks.cpg/sg138_3_cif.got.tgz:4116.got - 2010.05.20 13:08:53.
