data_PCOD9570384
_publ_section_title
;
Structure prediction by ZEFSAII (Michael W. Deem and Ramdas Pophale) SiO2 
 PCOD9570384
Probable space group: P 42/N M C
;
_chemical_formula_sum "Si O2"
_cell_formula_units_Z 96
_cell_length_a 21.040791
_cell_length_b 21.040791
_cell_length_c 11.021336
_cell_angle_alpha 90.000000
_cell_angle_beta 90.000000
_cell_angle_gamma 90.000000
_cell_volume 4879.309510
_symmetry_space_group_name_H-M "P 42/N M C"
_symmetry_group_IT_number 137
_space_group.IT_coordinate_system_code '2'
_symmetry_cell_setting 'tetragonal'
loop_
_space_group_symop_operation_xyz
x,y,z
1/2-y,x,1/2+z
1/2-x,1/2-y,z
y,1/2-x,1/2+z
1/2+x,-y,-z
-x,1/2+y,-z
1/2+y,1/2+x,1/2-z
-y,-x,1/2-z
-x,-y,-z
1/2+y,-x,1/2-z
1/2+x,1/2+y,-z
-y,1/2+x,1/2-z
1/2-x,y,z
x,1/2-y,z
1/2-y,1/2-x,1/2+z
y,x,1/2+z
loop_
_atom_site_type_symbol
_atom_site_label
_atom_site_fract_x
_atom_site_fract_y
_atom_site_fract_z
Si Si1 0.036623 0.538376 0.110537
Si Si2 0.178507 0.512774 0.031437
Si Si3 0.318902 0.010587 0.389030
Si Si4 0.318147 0.104380 0.163555
Si Si5 0.176022 0.929402 0.763286
Si Si6 0.442881 0.178555 0.147544
O O1 0.018205 0.518205 0.250000
O O2 0.112597 0.530686 0.096149
O O3 0.024594 0.614054 0.102965
O O4 0.000000 0.500000 0.000000
O O5 0.250000 0.530984 0.078120
O O6 0.177307 0.435929 0.038858
O O7 0.174446 0.543196 0.899147
O O8 0.250000 0.975327 0.399733
O O9 0.316998 0.050190 0.266100
O O10 0.319576 0.058311 0.502526
O O11 0.250000 0.138582 0.166490
O O12 0.380615 0.143452 0.188900
O O13 0.131268 0.868732 0.750000
O O14 0.250000 0.915623 0.731286
O O15 0.151068 0.988483 0.682932
O O16 0.443396 0.250000 0.197013
#
# Coordination Sequence:
#
# PCOD9570384 Si02
#       6
#    16  16  16  16  16  16
#     4  12  25  38  64  99 127 165 214 270 321 384
#     4  10  22  40  60  86 119 158 202 252 310 371
#     4  10  22  40  59  86 124 161 201 255 318 375
#     4  10  21  38  59  82 118 159 200 249 302 366
#     4  10  22  40  63  91 124 160 199 254 312 375
#     4  10  22  38  58  86 121 158 200 254 311 366
#
# _framework density 19.674916
#
# number of rings (size 3 to 8) (size 9 to 14) (size 15 to 20)
#    0.000    1.667    1.667    2.000    4.667    1.167 
#    0.000    0.000    0.000    4.500    0.000    1.167 
#    0.000    0.000    0.000    0.000    0.000    0.000 
#
# Total GULP energy -534588.156279 kJ/mol
# GULP energy per Si atom -5568.626628 kJ/mol
# Density = 1.963013 g / cm^3
# Si number density = 19.674916 Si / 1000 Ang^3
#
#
#
# Elastic Constant Matrix: (Units=GPa)
#
#
# Indices 1 2 3 4 5 6 
#
# 1 118.3859 76.5823 30.6067 0.0000 0.0000 0.0000
# 2 76.5823 118.3859 30.6067 0.0000 0.0000 0.0000
# 3 30.6067 30.6067 90.4874 0.0000 0.0000 0.0000
# 4 0.0000 0.0000 0.0000 20.0416 0.0000 0.0000
# 5 0.0000 0.0000 0.0000 0.0000 20.0416 0.0000
# 6 0.0000 0.0000 0.0000 0.0000 0.0000 32.3358
#
#
#
# Elastic Compliance Matrix: (Units=1/GPa)
#
#
# Indices 1 2 3 4 5 6 
#
# 1 0.014830 -0.009091 -0.001941 0.000000 0.000000 0.000000
# 2 -0.009091 0.014830 -0.001941 0.000000 0.000000 0.000000
# 3 -0.001941 -0.001941 0.012364 0.000000 0.000000 0.000000
# 4 0.000000 0.000000 0.000000 0.049896 0.000000 0.000000
# 5 0.000000 0.000000 0.000000 0.000000 0.049896 0.000000
# 6 0.000000 0.000000 0.000000 0.000000 0.000000 0.030925
#
#
# Mechanical properties :
#
#
# Convention : Reuss Voigt Hill
#
# Bulk Modulus (GPa) = 62.19968 66.98341 64.59154
# Shear Modulus (GPa) = 24.50402 27.11469 25.80935
#
# Velocity S-wave (km/s) = 3.53291 3.71635 3.62579
# Velocity P-wave (km/s) = 6.95157 7.24804 7.10135
#
# Compressibility (1/GPa) = 0.01607725
#
# Stress axis : x y z
#
# Youngs Moduli (GPa) = 67.43123 67.43123 80.87796
#
# Poissons Ratio (x) = 0.61305 0.15698
# Poissons Ratio (y) = 0.61305 0.15698
# Poissons Ratio (z) = 0.13088 0.13088
#
# Static dielectric constant tensor:
#      x y z
#    x 1.725050 0.000000 0.000000 
#    y 0.000000 1.725050 0.000000 
#    z 0.000000 0.000000 1.782190 
# 
# From -- ./inp_files/3768.got.cif
#   From: 2010.05.17/outbox.cif.g08.bks.cpg/sg137_2_cif.got.tgz:3768.got - 2010.05.20 13:01:12.
