data_PCOD9570111
_publ_section_title
;
Structure prediction by ZEFSAII (Michael W. Deem and Ramdas Pophale) SiO2 
 PCOD9570111
Probable space group: P 42/N M C
;
_chemical_formula_sum "Si O2"
_cell_formula_units_Z 112
_cell_length_a 14.872393
_cell_length_b 14.872393
_cell_length_c 25.713387
_cell_angle_alpha 90.000000
_cell_angle_beta 90.000000
_cell_angle_gamma 90.000000
_cell_volume 5687.494535
_symmetry_space_group_name_H-M "P 42/N M C"
_symmetry_group_IT_number 137
_space_group.IT_coordinate_system_code '2'
_symmetry_cell_setting 'tetragonal'
loop_
_space_group_symop_operation_xyz
x,y,z
1/2-y,x,1/2+z
1/2-x,1/2-y,z
y,1/2-x,1/2+z
1/2+x,-y,-z
-x,1/2+y,-z
1/2+y,1/2+x,1/2-z
-y,-x,1/2-z
-x,-y,-z
1/2+y,-x,1/2-z
1/2+x,1/2+y,-z
-y,1/2+x,1/2-z
1/2-x,y,z
x,1/2-y,z
1/2-y,1/2-x,1/2+z
y,x,1/2+z
loop_
_atom_site_type_symbol
_atom_site_label
_atom_site_fract_x
_atom_site_fract_y
_atom_site_fract_z
Si Si1 0.643018 0.145633 0.109231
Si Si2 0.044553 0.027016 0.857306
Si Si3 0.351030 0.897065 0.013008
Si Si4 0.849933 0.890131 0.960757
Si Si5 0.351695 0.045329 0.146377
Si Si6 0.464495 0.155431 0.944911
Si Si7 0.005458 0.144317 0.761426
O O1 0.750000 0.137181 0.119746
O O2 0.617177 0.250000 0.117849
O O3 0.588472 0.071573 0.142278
O O4 0.630939 0.122235 0.047957
O O5 0.075261 0.077371 0.909345
O O6 0.055694 0.089492 0.806881
O O7 0.936759 0.017887 0.862835
O O8 0.250000 0.864907 0.024101
O O9 0.429516 0.853648 0.046387
O O10 0.354015 0.003240 0.026008
O O11 0.750000 0.858484 0.974207
O O12 0.862772 0.880525 0.898817
O O13 0.922580 0.848060 0.997932
O O14 0.250000 0.008520 0.137634
O O15 0.357255 0.063069 0.207851
O O16 0.443370 0.250000 0.919134
O O17 0.988316 0.250000 0.773721
O O18 0.913394 0.086607 0.750000
#
# Coordination Sequence:
#
# PCOD9570111 Si02
#       7
#    16  16  16  16  16  16  16
#     4  10  21  37  59  86 114 150 198 250 305 359
#     4  11  20  35  58  84 120 158 194 241 300 359
#     4  10  19  34  53  75 111 154 194 241 294 350
#     4  10  19  34  55  76 107 153 198 242 290 345
#     4   9  18  34  58  81 107 149 197 239 282 339
#     4  12  23  32  50  84 121 156 190 232 292 365
#     4   9  19  35  57  86 117 156 200 239 284 346
#
# _framework density 19.692328
#
# number of rings (size 3 to 8) (size 9 to 14) (size 15 to 20)
#    0.000    1.857    2.857    2.143    0.000    1.286 
#    0.000    0.000    0.000   13.714    0.000   15.000 
#    0.000    0.000    0.000    0.000    0.000    0.000 
#
# Total GULP energy -623886.319664 kJ/mol
# GULP energy per Si atom -5570.413568 kJ/mol
# Density = 1.964751 g / cm^3
# Si number density = 19.692328 Si / 1000 Ang^3
#
#
#
# Elastic Constant Matrix: (Units=GPa)
#
#
# Indices 1 2 3 4 5 6 
#
# 1 82.4977 39.7957 45.2823 0.0000 0.0000 0.0000
# 2 39.7957 82.4972 45.2823 0.0000 0.0000 0.0000
# 3 45.2823 45.2823 109.6694 0.0000 0.0000 0.0000
# 4 0.0000 0.0000 0.0000 18.7651 0.0000 0.0000
# 5 0.0000 0.0000 0.0000 0.0000 18.7653 0.0000
# 6 0.0000 0.0000 0.0000 0.0000 0.0000 -15.3028
#
#
#
# Elastic Compliance Matrix: (Units=1/GPa)
#
#
# Indices 1 2 3 4 5 6 
#
# 1 0.017598 -0.005820 -0.004863 0.000000 0.000000 0.000000
# 2 -0.005820 0.017599 -0.004863 0.000000 0.000000 0.000000
# 3 -0.004863 -0.004863 0.013134 0.000000 0.000000 0.000000
# 4 0.000000 0.000000 0.000000 0.053290 0.000000 0.000000
# 5 0.000000 0.000000 0.000000 0.000000 0.053290 0.000000
# 6 0.000000 0.000000 0.000000 0.000000 0.000000 -0.065348
#
#
# Mechanical properties :
#
#
# Convention : Reuss Voigt Hill
#
# Bulk Modulus (GPa) = 58.01048 59.48720 58.74884
# Shear Modulus (GPa) = 39.55595 14.06580 26.81087
#
# Velocity S-wave (km/s) = 4.48671 2.67550 3.69384
# Velocity P-wave (km/s) = 7.50754 6.31017 6.93475
#
# Compressibility (1/GPa) = 0.01723826
#
# Stress axis : x y z
#
# Youngs Moduli (GPa) = 56.82339 56.82294 76.13546
#
# Poissons Ratio (x) = 0.33070 0.37027
# Poissons Ratio (y) = 0.33070 0.37028
# Poissons Ratio (z) = 0.27635 0.27635
#
# Static dielectric constant tensor:
#      x y z
#    x 1.709580 0.000000 0.000000 
#    y 0.000000 1.709580 0.000000 
#    z 0.000000 0.000000 1.714160 
# 
# From -- ./inp_files/8957.got.cif
#   From: 2010.05.17/outbox.cif.g08.bks.cpg/sg137_5_cif.got.tgz:8957.got - 2010.05.20 13:01:12.
