data_PCOD9570868
_publ_section_title
;
Structure prediction by ZEFSAII (Michael W. Deem and Ramdas Pophale) SiO2 
 PCOD9570868
Probable space group: P 42/N C M
;
_chemical_formula_sum "Si O2"
_cell_formula_units_Z 96
_cell_length_a 16.390423
_cell_length_b 16.390423
_cell_length_c 21.868784
_cell_angle_alpha 90.000000
_cell_angle_beta 90.000000
_cell_angle_gamma 90.000000
_cell_volume 5874.960606
_symmetry_space_group_name_H-M "P 42/N C M"
_symmetry_group_IT_number 138
_space_group.IT_coordinate_system_code '2'
_symmetry_cell_setting 'tetragonal'
loop_
_space_group_symop_operation_xyz
x,y,z
1/2-y,x,1/2+z
1/2-x,1/2-y,z
y,1/2-x,1/2+z
1/2+x,-y,1/2-z
-x,1/2+y,1/2-z
1/2+y,1/2+x,-z
-y,-x,-z
-x,-y,-z
1/2+y,-x,1/2-z
1/2+x,1/2+y,-z
-y,1/2+x,1/2-z
1/2-x,y,1/2+z
x,1/2-y,1/2+z
1/2-y,1/2-x,z
y,x,z
loop_
_atom_site_type_symbol
_atom_site_label
_atom_site_fract_x
_atom_site_fract_y
_atom_site_fract_z
Si Si1 0.243362 0.999251 0.242691
Si Si2 0.305499 0.942455 0.375933
Si Si3 0.939872 0.939872 0.767661
Si Si4 0.893618 0.606383 0.781577
Si Si5 0.002266 0.497735 0.136285
Si Si6 0.955769 0.544232 0.647963
Si Si7 0.359253 0.601881 0.430312
Si Si8 0.657256 0.240817 0.656338
O O1 0.153517 0.034157 0.235264
O O2 0.302570 0.071872 0.220834
O O3 0.265486 0.971784 0.311612
O O4 0.252834 0.916066 0.203836
O O5 0.230549 0.937714 0.422774
O O6 0.343102 0.851810 0.368293
O O7 0.380263 0.003632 0.386771
O O8 0.974061 0.974061 0.703442
O O9 0.978310 0.978310 0.829086
O O10 0.931197 0.568804 0.843446
O O11 0.925938 0.574063 0.715299
O O12 0.044401 0.572335 0.100777
O O13 0.381907 0.618094 0.500000
O O14 0.353616 0.688011 0.393943
O O15 0.750000 0.250000 0.680882
#
# Coordination Sequence:
#
# PCOD9570868 Si02
#       8
#    16  16   8   8   8   8  16  16
#     4  11  20  35  52  84 116 148 185 229 283 338
#     4  10  21  33  54  80 115 147 184 228 283 338
#     4  11  20  32  58  82 120 139 189 227 276 348
#     4   9  20  32  54  79 117 147 182 230 278 335
#     4  11  19  38  55  86 109 153 184 232 273 330
#     4   9  18  32  51  82 112 150 176 221 288 341
#     4  11  23  38  57  82 115 151 190 235 274 327
#     4  10  22  30  52  83 114 149 180 230 284 333
#
# _framework density 16.340534000000002
#
# number of rings (size 3 to 8) (size 9 to 14) (size 15 to 20)
#    0.000    1.667    5.000    0.250    4.667    3.333 
#    0.000    0.000    0.000    3.500    0.000    0.000 
#    0.000    0.000    0.000    0.000    0.000    0.000 
#
# Total GULP energy -534793.561242 kJ/mol
# GULP energy per Si atom -5570.766263 kJ/mol
# Density = 1.630334 g / cm^3
# Si number density = 16.340534 Si / 1000 Ang^3
#
#
#
# Elastic Constant Matrix: (Units=GPa)
#
#
# Indices 1 2 3 4 5 6 
#
# 1 84.4560 59.8378 40.4401 0.0000 0.0000 0.0000
# 2 59.8378 84.4549 40.4395 0.0000 0.0000 0.0000
# 3 40.4401 40.4395 61.8798 0.0000 0.0000 0.0000
# 4 0.0000 0.0000 0.0000 10.2121 0.0000 0.0000
# 5 0.0000 0.0000 0.0000 0.0000 10.2118 0.0000
# 6 0.0000 0.0000 0.0000 0.0000 0.0000 37.7471
#
#
#
# Elastic Compliance Matrix: (Units=1/GPa)
#
#
# Indices 1 2 3 4 5 6 
#
# 1 0.025779 -0.014842 -0.007147 0.000000 0.000000 0.000000
# 2 -0.014842 0.025779 -0.007147 0.000000 0.000000 0.000000
# 3 -0.007147 -0.007147 0.025502 0.000000 0.000000 0.000000
# 4 0.000000 0.000000 0.000000 0.097923 0.000000 0.000000
# 5 0.000000 0.000000 0.000000 0.000000 0.097926 0.000000
# 6 0.000000 0.000000 0.000000 0.000000 0.000000 0.026492
#
#
# Mechanical properties :
#
#
# Convention : Reuss Voigt Hill
#
# Bulk Modulus (GPa) = 53.23069 56.91396 55.07233
# Shear Modulus (GPa) = 13.73864 17.63909 15.68887
#
# Velocity S-wave (km/s) = 2.90275 3.28909 3.10194
# Velocity P-wave (km/s) = 6.62429 7.02351 6.82682
#
# Compressibility (1/GPa) = 0.01878615
#
# Stress axis : x y z
#
# Youngs Moduli (GPa) = 38.79148 38.79124 39.21242
#
# Poissons Ratio (x) = 0.57576 0.28027
# Poissons Ratio (y) = 0.57576 0.28026
# Poissons Ratio (z) = 0.27726 0.27725
#
# Static dielectric constant tensor:
#      x y z
#    x 1.569710 0.000000 0.000000 
#    y 0.000000 1.569710 0.000000 
#    z 0.000000 0.000000 1.520540 
# 
# From -- ./inp_files/6347.got.cif
#   From: 2010.05.17/outbox.cif.g08.bks.cpg/sg138_4_cif.got.tgz:6347.got - 2010.05.20 13:08:53.
