data_PCOD9570606
_publ_section_title
;
Structure prediction by ZEFSAII (Michael W. Deem and Ramdas Pophale) SiO2 
 PCOD9570606
Probable space group: P 42/N C M
;
_chemical_formula_sum "Si O2"
_cell_formula_units_Z 96
_cell_length_a 14.958502
_cell_length_b 14.958502
_cell_length_c 23.924570
_cell_angle_alpha 90.000000
_cell_angle_beta 90.000000
_cell_angle_gamma 90.000000
_cell_volume 5353.284796
_symmetry_space_group_name_H-M "P 42/N C M"
_symmetry_group_IT_number 138
_space_group.IT_coordinate_system_code '2'
_symmetry_cell_setting 'tetragonal'
loop_
_space_group_symop_operation_xyz
x,y,z
1/2-y,x,1/2+z
1/2-x,1/2-y,z
y,1/2-x,1/2+z
1/2+x,-y,1/2-z
-x,1/2+y,1/2-z
1/2+y,1/2+x,-z
-y,-x,-z
-x,-y,-z
1/2+y,-x,1/2-z
1/2+x,1/2+y,-z
-y,1/2+x,1/2-z
1/2-x,y,1/2+z
x,1/2-y,1/2+z
1/2-y,1/2-x,z
y,x,z
loop_
_atom_site_type_symbol
_atom_site_label
_atom_site_fract_x
_atom_site_fract_y
_atom_site_fract_z
Si Si1 0.507871 0.770294 0.657006
Si Si2 0.446213 0.195563 0.105873
Si Si3 0.576509 0.077545 0.845313
Si Si4 0.777796 0.926417 0.777582
Si Si5 0.674749 0.825252 0.584640
Si Si6 0.076612 0.926609 0.783276
Si Si7 0.325579 0.325579 0.048375
O O1 0.464091 0.674828 0.643837
O O2 0.559552 0.762655 0.716537
O O3 0.580344 0.797215 0.611272
O O4 0.434626 0.845681 0.671368
O O5 0.382921 0.117080 0.082134
O O6 0.544366 0.152845 0.112050
O O7 0.420992 0.212595 0.170455
O O8 0.417036 0.286081 0.074520
O O9 0.610669 0.077910 0.780891
O O10 0.495627 0.004374 0.846771
O O11 0.839468 0.839468 0.776366
O O12 0.842676 0.010942 0.789328
O O13 0.750000 0.750000 0.597841
O O14 0.668062 0.831939 0.517902
O O15 0.014559 0.014559 0.788395
O O16 0.250000 0.250000 0.062604
#
# Coordination Sequence:
#
# PCOD9570606 Si02
#       7
#    16  16  16  16   8  16   8
#     4  11  19  32  50  73 105 146 170 207 276 331
#     4  10  18  32  54  74  99 136 172 217 261 315
#     4   9  18  31  47  74 109 138 174 217 265 322
#     4  10  19  29  49  77 103 129 170 222 263 313
#     4  11  22  34  51  79 113 135 177 230 265 314
#     4   9  17  30  45  71 108 138 162 211 271 314
#     4   9  20  36  51  77 107 139 174 229 269 296
#
# _framework density 17.932914
#
# number of rings (size 3 to 8) (size 9 to 14) (size 15 to 20)
#    0.000    2.167    3.333    2.500    1.167    0.000 
#    0.000    1.667    0.000    6.000    0.000    0.000 
#    0.000    2.667    0.000    0.000    0.000    0.000 
#
# Total GULP energy -534990.498231 kJ/mol
# GULP energy per Si atom -5572.817690 kJ/mol
# Density = 1.789210 g / cm^3
# Si number density = 17.932914 Si / 1000 Ang^3
#
#
#
# Elastic Constant Matrix: (Units=GPa)
#
#
# Indices 1 2 3 4 5 6 
#
# 1 58.5656 30.6465 25.9161 0.0000 0.0000 0.0000
# 2 30.6465 58.5656 25.9161 0.0000 0.0000 0.0000
# 3 25.9161 25.9161 50.3411 0.0000 0.0000 0.0000
# 4 0.0000 0.0000 0.0000 10.7660 0.0000 0.0000
# 5 0.0000 0.0000 0.0000 0.0000 10.7660 0.0000
# 6 0.0000 0.0000 0.0000 0.0000 0.0000 20.1271
#
#
#
# Elastic Compliance Matrix: (Units=1/GPa)
#
#
# Indices 1 2 3 4 5 6 
#
# 1 0.025905 -0.009913 -0.008233 0.000000 0.000000 0.000000
# 2 -0.009913 0.025905 -0.008233 0.000000 0.000000 0.000000
# 3 -0.008233 -0.008233 0.028342 0.000000 0.000000 0.000000
# 4 0.000000 0.000000 0.000000 0.092885 0.000000 0.000000
# 5 0.000000 0.000000 0.000000 0.000000 0.092885 0.000000
# 6 0.000000 0.000000 0.000000 0.000000 0.000000 0.049684
#
#
# Mechanical properties :
#
#
# Convention : Reuss Voigt Hill
#
# Bulk Modulus (GPa) = 36.50412 36.93663 36.72037
# Shear Modulus (GPa) = 13.24520 13.99807 13.62163
#
# Velocity S-wave (km/s) = 2.72066 2.79692 2.75905
# Velocity P-wave (km/s) = 5.50177 5.57424 5.53812
#
# Compressibility (1/GPa) = 0.02739417
#
# Stress axis : x y z
#
# Youngs Moduli (GPa) = 38.60224 38.60224 35.28390
#
# Poissons Ratio (x) = 0.38265 0.29050
# Poissons Ratio (y) = 0.38265 0.29050
# Poissons Ratio (z) = 0.31782 0.31782
#
# Static dielectric constant tensor:
#      x y z
#    x 1.652530 0.000000 0.000000 
#    y 0.000000 1.652530 0.000000 
#    z 0.000000 0.000000 1.586310 
# 
# From -- ./inp_files/6987.got.cif
#   From: 2010.05.17/outbox.cif.g08.bks.cpg/sg138_4_cif.got.tgz:6987.got - 2010.05.20 13:08:53.
