data_PCOD9570017
_publ_section_title
;
Structure prediction by ZEFSAII (Michael W. Deem and Ramdas Pophale) SiO2 
 PCOD9570017
Probable space group: P 42/N M C
;
_chemical_formula_sum "Si O2"
_cell_formula_units_Z 96
_cell_length_a 15.759499
_cell_length_b 15.759499
_cell_length_c 21.822248
_cell_angle_alpha 90.000000
_cell_angle_beta 90.000000
_cell_angle_gamma 90.000000
_cell_volume 5419.812984
_symmetry_space_group_name_H-M "P 42/N M C"
_symmetry_group_IT_number 137
_space_group.IT_coordinate_system_code '2'
_symmetry_cell_setting 'tetragonal'
loop_
_space_group_symop_operation_xyz
x,y,z
1/2-y,x,1/2+z
1/2-x,1/2-y,z
y,1/2-x,1/2+z
1/2+x,-y,-z
-x,1/2+y,-z
1/2+y,1/2+x,1/2-z
-y,-x,1/2-z
-x,-y,-z
1/2+y,-x,1/2-z
1/2+x,1/2+y,-z
-y,1/2+x,1/2-z
1/2-x,y,z
x,1/2-y,z
1/2-y,1/2-x,1/2+z
y,x,1/2+z
loop_
_atom_site_type_symbol
_atom_site_label
_atom_site_fract_x
_atom_site_fract_y
_atom_site_fract_z
Si Si1 0.591042 0.157048 0.465331
Si Si2 0.348008 0.474185 0.506871
Si Si3 0.841751 0.959841 0.923373
Si Si4 0.002503 0.424655 0.695484
Si Si5 0.551451 0.917118 0.614895
Si Si6 0.650826 0.849887 0.226889
O O1 0.632078 0.250000 0.459179
O O2 0.533826 0.157399 0.526556
O O3 0.522339 0.142186 0.411617
O O4 0.645673 0.071924 0.471774
O O5 0.250000 0.450515 0.498460
O O6 0.394626 0.415225 0.557157
O O7 0.400441 0.458877 0.443579
O O8 0.750000 0.916453 0.925834
O O9 0.855192 0.002107 0.857437
O O10 0.933478 0.433478 0.750000
O O11 0.992089 0.511252 0.657104
O O12 0.091560 0.405521 0.728639
O O13 0.617790 0.868720 0.658168
O O14 0.750000 0.860191 0.240567
O O15 0.629042 0.750000 0.232639
#
# Coordination Sequence:
#
# PCOD9570017 Si02
#       6
#    16  16  16  16  16  16
#     4  10  19  34  58  79 103 139 180 226 276 332
#     4  11  21  34  55  83 113 142 177 226 287 347
#     4  10  19  35  56  81 111 142 179 225 277 334
#     4  10  19  33  56  75 108 150 192 221 261 329
#     4  10  18  37  55  78 105 143 187 224 270 337
#     4  10  21  34  51  80 112 140 178 230 283 330
#
# _framework density 17.712789000000001
#
# number of rings (size 3 to 8) (size 9 to 14) (size 15 to 20)
#    0.000    1.833    3.333    2.500    0.000    2.000 
#    0.000    0.000    0.000    0.000    0.000    0.000 
#    0.000    0.000    0.000    0.000    0.000    0.000 
#
# Total GULP energy -534681.496180 kJ/mol
# GULP energy per Si atom -5569.598919 kJ/mol
# Density = 1.767247 g / cm^3
# Si number density = 17.712789 Si / 1000 Ang^3
#
#
#
# Elastic Constant Matrix: (Units=GPa)
#
#
# Indices 1 2 3 4 5 6 
#
# 1 84.8185 33.6555 26.1077 0.0000 0.0000 0.0000
# 2 33.6555 84.8185 26.1077 0.0000 0.0000 0.0000
# 3 26.1077 26.1077 90.8735 0.0000 0.0000 0.0000
# 4 0.0000 0.0000 0.0000 8.3983 0.0000 0.0000
# 5 0.0000 0.0000 0.0000 0.0000 8.3983 0.0000
# 6 0.0000 0.0000 0.0000 0.0000 0.0000 12.9968
#
#
#
# Elastic Compliance Matrix: (Units=1/GPa)
#
#
# Indices 1 2 3 4 5 6 
#
# 1 0.014605 -0.004940 -0.002777 0.000000 0.000000 0.000000
# 2 -0.004940 0.014605 -0.002777 0.000000 0.000000 0.000000
# 3 -0.002777 -0.002777 0.012600 0.000000 0.000000 0.000000
# 4 0.000000 0.000000 0.000000 0.119071 0.000000 0.000000
# 5 0.000000 0.000000 0.000000 0.000000 0.119071 0.000000
# 6 0.000000 0.000000 0.000000 0.000000 0.000000 0.076942
#
#
# Mechanical properties :
#
#
# Convention : Reuss Voigt Hill
#
# Bulk Modulus (GPa) = 48.02549 48.02802 48.02675
# Shear Modulus (GPa) = 12.99304 17.60134 15.29719
#
# Velocity S-wave (km/s) = 2.71133 3.15573 2.94194
# Velocity P-wave (km/s) = 6.08063 6.36018 6.22198
#
# Compressibility (1/GPa) = 0.02082228
#
# Stress axis : x y z
#
# Youngs Moduli (GPa) = 68.47024 68.47024 79.36701
#
# Poissons Ratio (x) = 0.33828 0.22037
# Poissons Ratio (y) = 0.33828 0.22037
# Poissons Ratio (z) = 0.19011 0.19011
#
# Static dielectric constant tensor:
#      x y z
#    x 1.606600 0.000000 0.000000 
#    y 0.000000 1.606600 0.000000 
#    z 0.000000 0.000000 1.626220 
# 
# From -- ./inp_files/7877.got.cif
#   From: 2010.05.17/outbox.cif.g08.bks.cpg/sg137_4_cif.got.tgz:7877.got - 2010.05.20 13:01:12.
