data_PCOD9570778
_publ_section_title
;
Structure prediction by ZEFSAII (Michael W. Deem and Ramdas Pophale) SiO2 
 PCOD9570778
Probable space group: P 42/N C M
;
_chemical_formula_sum "Si O2"
_cell_formula_units_Z 96
_cell_length_a 14.892650
_cell_length_b 14.892650
_cell_length_c 23.919889
_cell_angle_alpha 90.000000
_cell_angle_beta 90.000000
_cell_angle_gamma 90.000000
_cell_volume 5305.216676
_symmetry_space_group_name_H-M "P 42/N C M"
_symmetry_group_IT_number 138
_space_group.IT_coordinate_system_code '2'
_symmetry_cell_setting 'tetragonal'
loop_
_space_group_symop_operation_xyz
x,y,z
1/2-y,x,1/2+z
1/2-x,1/2-y,z
y,1/2-x,1/2+z
1/2+x,-y,1/2-z
-x,1/2+y,1/2-z
1/2+y,1/2+x,-z
-y,-x,-z
-x,-y,-z
1/2+y,-x,1/2-z
1/2+x,1/2+y,-z
-y,1/2+x,1/2-z
1/2-x,y,1/2+z
x,1/2-y,1/2+z
1/2-y,1/2-x,z
y,x,z
loop_
_atom_site_type_symbol
_atom_site_label
_atom_site_fract_x
_atom_site_fract_y
_atom_site_fract_z
Si Si1 0.633104 0.014901 0.853057
Si Si2 0.110041 0.697288 0.743931
Si Si3 0.549778 0.806567 0.540214
Si Si4 0.906180 0.448842 0.637594
Si Si5 0.309381 0.454103 0.092144
Si Si6 0.614339 0.037599 0.054905
O O1 0.548786 0.951215 0.842205
O O2 0.706871 0.960977 0.889191
O O3 0.675905 0.044362 0.794919
O O4 0.599290 0.099137 0.890509
O O5 0.138998 0.800383 0.745464
O O6 0.071196 0.667123 0.684414
O O7 0.649778 0.850223 0.549910
O O8 0.484922 0.863900 0.580103
O O9 0.532186 0.818123 0.474358
O O10 0.522574 0.703964 0.553427
O O11 0.973995 0.526006 0.658556
O O12 0.966634 0.362786 0.623350
O O13 0.361174 0.361174 0.105374
O O14 0.531641 0.968360 0.054765
O O15 0.600046 0.100046 0.000000
#
# Coordination Sequence:
#
# PCOD9570778 Si02
#       6
#    16  16  16  16  16  16
#     4  11  22  38  59  83 115 155 196 234 286 346
#     4  11  22  37  58  83 113 147 192 240 285 340
#     4  10  20  35  59  86 113 150 191 234 289 350
#     4  10  20  37  58  81 113 147 184 234 291 344
#     4  10  20  36  58  84 115 148 189 239 288 340
#     4  10  20  35  54  79 115 153 188 232 283 337
#
# _framework density 18.095396000000001
#
# number of rings (size 3 to 8) (size 9 to 14) (size 15 to 20)
#    0.000    1.667    3.333    2.000    0.000    2.667 
#    0.000    1.667    0.000    0.000    0.000    2.333 
#    0.000    0.000    0.000    0.000    0.000    0.000 
#
# Total GULP energy -535280.617882 kJ/mol
# GULP energy per Si atom -5575.839770 kJ/mol
# Density = 1.805421 g / cm^3
# Si number density = 18.095396 Si / 1000 Ang^3
#
#
#
# Elastic Constant Matrix: (Units=GPa)
#
#
# Indices 1 2 3 4 5 6 
#
# 1 52.3435 8.1014 16.7579 0.0000 0.0000 0.0000
# 2 8.1014 52.3435 16.7579 0.0000 0.0000 0.0000
# 3 16.7579 16.7579 68.9288 0.0000 0.0000 0.0000
# 4 0.0000 0.0000 0.0000 22.8787 0.0000 0.0000
# 5 0.0000 0.0000 0.0000 0.0000 22.8787 0.0000
# 6 0.0000 0.0000 0.0000 0.0000 0.0000 20.0146
#
#
#
# Elastic Compliance Matrix: (Units=1/GPa)
#
#
# Indices 1 2 3 4 5 6 
#
# 1 0.020862 -0.001741 -0.004649 0.000000 0.000000 0.000000
# 2 -0.001741 0.020862 -0.004649 0.000000 0.000000 0.000000
# 3 -0.004649 -0.004649 0.016768 0.000000 0.000000 0.000000
# 4 0.000000 0.000000 0.000000 0.043709 0.000000 0.000000
# 5 0.000000 0.000000 0.000000 0.000000 0.043709 0.000000
# 6 0.000000 0.000000 0.000000 0.000000 0.000000 0.049964
#
#
# Mechanical properties :
#
#
# Convention : Reuss Voigt Hill
#
# Bulk Modulus (GPa) = 27.46032 28.53892 27.99962
# Shear Modulus (GPa) = 21.73071 21.95431 21.84251
#
# Velocity S-wave (km/s) = 3.46916 3.48696 3.47807
# Velocity P-wave (km/s) = 5.59061 5.65840 5.62461
#
# Compressibility (1/GPa) = 0.03641619
#
# Stress axis : x y z
#
# Youngs Moduli (GPa) = 47.93328 47.93328 59.63670
#
# Poissons Ratio (x) = 0.08343 0.27724
# Poissons Ratio (y) = 0.08343 0.27724
# Poissons Ratio (z) = 0.22284 0.22284
#
# Static dielectric constant tensor:
#      x y z
#    x 1.615040 0.000000 0.000000 
#    y 0.000000 1.615040 0.000000 
#    z 0.000000 0.000000 1.607860 
# 
# From -- ./inp_files/6206.got.cif
#   From: 2010.05.17/outbox.cif.g08.bks.cpg/sg138_4_cif.got.tgz:6206.got - 2010.05.20 13:08:53.
