data_PCOD9570756
_publ_section_title
;
Structure prediction by ZEFSAII (Michael W. Deem and Ramdas Pophale) SiO2 
 PCOD9570756
Probable space group: P 42/N C M
;
_chemical_formula_sum "Si O2"
_cell_formula_units_Z 120
_cell_length_a 17.591660
_cell_length_b 17.591660
_cell_length_c 20.336142
_cell_angle_alpha 90.000000
_cell_angle_beta 90.000000
_cell_angle_gamma 90.000000
_cell_volume 6293.354720
_symmetry_space_group_name_H-M "P 42/N C M"
_symmetry_group_IT_number 138
_space_group.IT_coordinate_system_code '2'
_symmetry_cell_setting 'tetragonal'
loop_
_space_group_symop_operation_xyz
x,y,z
1/2-y,x,1/2+z
1/2-x,1/2-y,z
y,1/2-x,1/2+z
1/2+x,-y,1/2-z
-x,1/2+y,1/2-z
1/2+y,1/2+x,-z
-y,-x,-z
-x,-y,-z
1/2+y,-x,1/2-z
1/2+x,1/2+y,-z
-y,1/2+x,1/2-z
1/2-x,y,1/2+z
x,1/2-y,1/2+z
1/2-y,1/2-x,z
y,x,z
loop_
_atom_site_type_symbol
_atom_site_label
_atom_site_fract_x
_atom_site_fract_y
_atom_site_fract_z
Si Si1 0.250539 0.519620 0.563448
Si Si2 0.419277 0.205415 0.792845
Si Si3 0.359875 0.625941 0.648992
Si Si4 0.750000 0.250000 0.841787
Si Si5 0.040922 0.916782 0.762576
Si Si6 0.240893 0.518163 0.914532
Si Si7 0.868682 0.369932 0.392784
Si Si8 0.746996 0.624374 0.342838
O O1 0.310725 0.575927 0.598919
O O2 0.274691 0.497702 0.489983
O O3 0.171781 0.567354 0.562352
O O4 0.242387 0.446822 0.609858
O O5 0.345014 0.154987 0.806863
O O6 0.482382 0.148270 0.761898
O O7 0.452483 0.238518 0.859934
O O8 0.401393 0.261813 0.733029
O O9 0.305997 0.686430 0.688884
O O10 0.401851 0.573414 0.701685
O O11 0.420955 0.677209 0.609847
O O12 0.693739 0.303237 0.883251
O O13 0.087842 0.886574 0.824420
O O14 0.991040 0.991040 0.777355
O O15 0.323514 0.557360 0.912939
O O16 0.821503 0.678498 0.344364
O O17 0.675803 0.675803 0.362866
#
# Coordination Sequence:
#
# PCOD9570756 Si02
#       8
#    16  16  16   8  16  16  16  16
#     4  11  21  36  59  87 120 157 192 239 299 355
#     4   9  19  39  60  78 109 152 194 242 298 349
#     4   9  20  34  55  84 119 154 193 240 288 347
#     4   8  18  31  51  80 108 152 198 234 276 338
#     4  10  20  34  54  80 112 152 194 239 295 349
#     4  10  21  36  57  88 122 157 195 233 294 361
#     4  10  20  34  55  83 122 157 194 241 290 349
#     4  10  22  41  64  85 107 146 203 256 300 350
#
# _framework density 19.067731999999999
#
# number of rings (size 3 to 8) (size 9 to 14) (size 15 to 20)
#    0.000    2.267    1.333    0.800    1.867    4.800 
#    0.000    5.333    0.000    7.200    0.000    0.000 
#    0.000    0.000    0.000    0.000    0.000    0.000 
#
# Total GULP energy -668954.360744 kJ/mol
# GULP energy per Si atom -5574.619673 kJ/mol
# Density = 1.902433 g / cm^3
# Si number density = 19.067732 Si / 1000 Ang^3
#
#
#
# Elastic Constant Matrix: (Units=GPa)
#
#
# Indices 1 2 3 4 5 6 
#
# 1 64.9090 27.2292 36.9227 0.0000 0.0000 0.0000
# 2 27.2292 64.9090 36.9227 0.0000 0.0000 0.0000
# 3 36.9227 36.9227 119.4046 0.0000 0.0000 0.0000
# 4 0.0000 0.0000 0.0000 7.6748 0.0000 0.0000
# 5 0.0000 0.0000 0.0000 0.0000 7.6748 0.0000
# 6 0.0000 0.0000 0.0000 0.0000 0.0000 16.2916
#
#
#
# Elastic Compliance Matrix: (Units=1/GPa)
#
#
# Indices 1 2 3 4 5 6 
#
# 1 0.020484 -0.006055 -0.004462 0.000000 0.000000 0.000000
# 2 -0.006055 0.020484 -0.004462 0.000000 0.000000 0.000000
# 3 -0.004462 -0.004462 0.011134 0.000000 0.000000 0.000000
# 4 0.000000 0.000000 0.000000 0.130297 0.000000 0.000000
# 5 0.000000 0.000000 0.000000 0.000000 0.130297 0.000000
# 6 0.000000 0.000000 0.000000 0.000000 0.000000 0.061381
#
#
# Mechanical properties :
#
#
# Convention : Reuss Voigt Hill
#
# Bulk Modulus (GPa) = 45.15608 50.15240 47.65424
# Shear Modulus (GPa) = 12.15312 16.20477 14.17895
#
# Velocity S-wave (km/s) = 2.52735 2.91839 2.72988
# Velocity P-wave (km/s) = 5.67891 6.14128 5.91461
#
# Compressibility (1/GPa) = 0.02214541
#
# Stress axis : x y z
#
# Youngs Moduli (GPa) = 48.81772 48.81772 89.81238
#
# Poissons Ratio (x) = 0.29559 0.40073
# Poissons Ratio (y) = 0.29559 0.40073
# Poissons Ratio (z) = 0.21782 0.21782
#
# Static dielectric constant tensor:
#      x y z
#    x 1.682810 0.000000 0.000000 
#    y 0.000000 1.682810 0.000000 
#    z 0.000000 0.000000 1.668620 
# 
# From -- ./inp_files/6528.got.cif
#   From: 2010.05.17/outbox.cif.g08.bks.cpg/sg138_4_cif.got.tgz:6528.got - 2010.05.20 13:08:53.
