data_PCOD9570985
_publ_section_title
;
Structure prediction by ZEFSAII (Michael W. Deem and Ramdas Pophale) SiO2 
 PCOD9570985
Probable space group: P 42/N C M
;
_chemical_formula_sum "Si O2"
_cell_formula_units_Z 88
_cell_length_a 11.570785
_cell_length_b 11.570785
_cell_length_c 33.916214
_cell_angle_alpha 90.000000
_cell_angle_beta 90.000000
_cell_angle_gamma 90.000000
_cell_volume 4540.806701
_symmetry_space_group_name_H-M "P 42/N C M"
_symmetry_group_IT_number 138
_space_group.IT_coordinate_system_code '2'
_symmetry_cell_setting 'tetragonal'
loop_
_space_group_symop_operation_xyz
x,y,z
1/2-y,x,1/2+z
1/2-x,1/2-y,z
y,1/2-x,1/2+z
1/2+x,-y,1/2-z
-x,1/2+y,1/2-z
1/2+y,1/2+x,-z
-y,-x,-z
-x,-y,-z
1/2+y,-x,1/2-z
1/2+x,1/2+y,-z
-y,1/2+x,1/2-z
1/2-x,y,1/2+z
x,1/2-y,1/2+z
1/2-y,1/2-x,z
y,x,z
loop_
_atom_site_type_symbol
_atom_site_label
_atom_site_fract_x
_atom_site_fract_y
_atom_site_fract_z
Si Si1 0.017233 0.820387 0.524313
Si Si2 0.384017 0.712322 0.691275
Si Si3 0.848676 0.651325 0.479898
Si Si4 0.552468 0.947533 0.398884
Si Si5 0.887056 0.219907 0.895275
Si Si6 0.349402 0.150599 0.682042
Si Si7 0.504598 0.810667 0.767437
O O1 0.124643 0.875358 0.500000
O O2 0.055797 0.783144 0.567675
O O3 0.954878 0.712159 0.502900
O O4 0.920876 0.920876 0.526596
O O5 0.250000 0.750000 0.691651
O O6 0.429388 0.736057 0.647585
O O7 0.444552 0.779773 0.726644
O O8 0.383589 0.580019 0.704747
O O9 0.750000 0.750000 0.475222
O O10 0.892997 0.607004 0.438077
O O11 0.416097 0.917109 0.398018
O O12 0.609712 0.890289 0.360434
O O13 0.750000 0.250000 0.896954
O O14 0.250000 0.250000 0.678250
O O15 0.455508 0.201396 0.707001
O O16 0.618263 0.881738 0.758131
#
# Coordination Sequence:
#
# PCOD9570985 Si02
#       7
#    16  16   8   8  16   8  16
#     4  10  22  42  65  86 124 169 201 256 312 377
#     4  11  22  39  58  86 120 161 203 249 309 372
#     4  10  22  41  64  92 120 162 213 241 322 388
#     4  12  24  38  68  91 126 167 192 276 322 354
#     4  11  25  39  59  97 125 155 214 255 308 379
#     4  10  23  41  59  93 126 155 216 254 303 370
#     4  11  23  38  64  87 120 167 206 259 305 367
#
# _framework density 19.379815000000001
#
# number of rings (size 3 to 8) (size 9 to 14) (size 15 to 20)
#    0.000    1.273    1.818    4.091    2.545    4.000 
#    0.000    4.545    0.000    0.000    0.000    0.000 
#    0.000    0.000    0.000    0.000    0.000    0.000 
#
# Total GULP energy -491676.537910 kJ/mol
# GULP energy per Si atom -5587.233385 kJ/mol
# Density = 1.933571 g / cm^3
# Si number density = 19.379815 Si / 1000 Ang^3
#
#
#
# Elastic Constant Matrix: (Units=GPa)
#
#
# Indices 1 2 3 4 5 6 
#
# 1 82.3592 40.4374 70.1931 0.0000 0.0000 0.0000
# 2 40.4374 82.3611 70.1936 0.0000 0.0000 0.0000
# 3 70.1931 70.1936 227.1853 0.0000 0.0000 0.0000
# 4 0.0000 0.0000 0.0000 -28.2293 0.0000 0.0000
# 5 0.0000 0.0000 0.0000 0.0000 -28.2314 0.0000
# 6 0.0000 0.0000 0.0000 0.0000 0.0000 29.3540
#
#
#
# Elastic Compliance Matrix: (Units=1/GPa)
#
#
# Indices 1 2 3 4 5 6 
#
# 1 0.018222 -0.005631 -0.003890 0.000000 0.000000 0.000000
# 2 -0.005631 0.018222 -0.003890 0.000000 0.000000 0.000000
# 3 -0.003890 -0.003890 0.006806 0.000000 0.000000 0.000000
# 4 0.000000 0.000000 0.000000 -0.035424 0.000000 0.000000
# 5 0.000000 0.000000 0.000000 0.000000 -0.035422 0.000000
# 6 0.000000 0.000000 0.000000 0.000000 0.000000 0.034067
#
#
# Mechanical properties :
#
#
# Convention : Reuss Voigt Hill
#
# Bulk Modulus (GPa) = 60.87688 83.72820 72.30254
# Shear Modulus (GPa) = 128.96581 8.65076 68.80829
#
# Velocity S-wave (km/s) = 8.16645 2.11506 5.96508
# Velocity P-wave (km/s) = 10.97278 7.01871 9.21043
#
# Compressibility (1/GPa) = 0.01642660
#
# Stress axis : x y z
#
# Youngs Moduli (GPa) = 54.87750 54.87889 146.93766
#
# Poissons Ratio (x) = 0.30904 0.57162
# Poissons Ratio (y) = 0.30903 0.57161
# Poissons Ratio (z) = 0.21349 0.21349
#
# Static dielectric constant tensor:
#      x y z
#    x 1.744520 0.000000 0.000000 
#    y 0.000000 1.744540 0.000000 
#    z 0.000000 0.000000 1.638600 
# 
# From -- ./inp_files/8121.got.cif
#   From: 2010.05.17/outbox.cif.g08.bks.cpg/sg138_5_cif.got.tgz:8121.got - 2010.05.20 13:08:53.
