data_PCOD9570458
_publ_section_title
;
Structure prediction by ZEFSAII (Michael W. Deem and Ramdas Pophale) SiO2 
 PCOD9570458
Probable space group: P 42/N M C
;
_chemical_formula_sum "Si O2"
_cell_formula_units_Z 72
_cell_length_a 13.610547
_cell_length_b 13.610547
_cell_length_c 19.486893
_cell_angle_alpha 90.000000
_cell_angle_beta 90.000000
_cell_angle_gamma 90.000000
_cell_volume 3609.888266
_symmetry_space_group_name_H-M "P 42/N M C"
_symmetry_group_IT_number 137
_space_group.IT_coordinate_system_code '2'
_symmetry_cell_setting 'tetragonal'
loop_
_space_group_symop_operation_xyz
x,y,z
1/2-y,x,1/2+z
1/2-x,1/2-y,z
y,1/2-x,1/2+z
1/2+x,-y,-z
-x,1/2+y,-z
1/2+y,1/2+x,1/2-z
-y,-x,1/2-z
-x,-y,-z
1/2+y,-x,1/2-z
1/2+x,1/2+y,-z
-y,1/2+x,1/2-z
1/2-x,y,z
x,1/2-y,z
1/2-y,1/2-x,1/2+z
y,x,1/2+z
loop_
_atom_site_type_symbol
_atom_site_label
_atom_site_fract_x
_atom_site_fract_y
_atom_site_fract_z
Si Si1 0.638408 0.979395 0.225936
Si Si2 0.864466 0.135535 0.750000
Si Si3 0.863294 0.951885 0.839496
Si Si4 0.863573 0.538581 0.063458
Si Si5 0.499877 0.864752 0.959271
O O1 0.750000 0.010147 0.239472
O O2 0.612327 0.885244 0.271796
O O3 0.628140 0.958954 0.145544
O O4 0.563962 0.063962 0.250000
O O5 0.750000 0.121004 0.731836
O O6 0.937541 0.114200 0.686812
O O7 0.750000 0.946149 0.860492
O O8 0.934244 0.911092 0.898058
O O9 0.750000 0.554250 0.044670
O O10 0.902499 0.431576 0.039044
O O11 0.935834 0.615270 0.027059
O O12 0.481878 0.750000 0.948188
#
# Coordination Sequence:
#
# PCOD9570458 Si02
#       5
#    16   8  16  16  16
#     4  11  22  39  61  88 122 159 201 250 303 357
#     4   9  18  34  58  86 119 160 204 254 311 366
#     4  11  21  36  60  89 122 159 206 257 306 362
#     4  10  23  41  62  89 124 162 203 253 306 364
#     4  11  23  41  63  88 123 163 205 253 307 364
#
# _framework density 19.945215999999999
#
# number of rings (size 3 to 8) (size 9 to 14) (size 15 to 20)
#    0.000    1.444    3.333    1.333    0.000    4.667 
#    0.000   11.111    0.000    5.333    0.000    0.000 
#    0.000    0.000    0.000    0.000    0.000    0.000 
#
# Total GULP energy -402227.202146 kJ/mol
# GULP energy per Si atom -5586.488919 kJ/mol
# Density = 1.989982 g / cm^3
# Si number density = 19.945216 Si / 1000 Ang^3
#
#
#
# Elastic Constant Matrix: (Units=GPa)
#
#
# Indices 1 2 3 4 5 6 
#
# 1 35.3816 -2.9007 1.0777 0.0000 0.0000 0.0000
# 2 -2.9007 35.3832 1.0776 0.0000 0.0000 0.0000
# 3 1.0777 1.0776 59.6079 0.0000 0.0000 0.0000
# 4 0.0000 0.0000 0.0000 17.6203 0.0000 0.0000
# 5 0.0000 0.0000 0.0000 0.0000 17.6203 0.0000
# 6 0.0000 0.0000 0.0000 0.0000 0.0000 14.4512
#
#
#
# Elastic Compliance Matrix: (Units=1/GPa)
#
#
# Indices 1 2 3 4 5 6 
#
# 1 0.028473 0.002351 -0.000557 0.000000 0.000000 0.000000
# 2 0.002351 0.028472 -0.000557 0.000000 0.000000 0.000000
# 3 -0.000557 -0.000557 0.016796 0.000000 0.000000 0.000000
# 4 0.000000 0.000000 0.000000 0.056753 0.000000 0.000000
# 5 0.000000 0.000000 0.000000 0.000000 0.056753 0.000000
# 6 0.000000 0.000000 0.000000 0.000000 0.000000 0.069199
#
#
# Mechanical properties :
#
#
# Convention : Reuss Voigt Hill
#
# Bulk Modulus (GPa) = 13.12085 14.32021 13.72053
# Shear Modulus (GPa) = 17.89698 18.67956 18.28827
#
# Velocity S-wave (km/s) = 2.99876 3.06362 3.03136
# Velocity P-wave (km/s) = 4.31078 4.43956 4.37564
#
# Compressibility (1/GPa) = 0.07621455
#
# Stress axis : x y z
#
# Youngs Moduli (GPa) = 35.12098 35.12255 59.53636
#
# Poissons Ratio (x) = -0.08258 0.03318
# Poissons Ratio (y) = -0.08258 0.03318
# Poissons Ratio (z) = 0.01957 0.01957
#
# Static dielectric constant tensor:
#      x y z
#    x 1.702180 0.000000 0.000000 
#    y 0.000000 1.702180 0.000000 
#    z 0.000000 0.000000 1.721740 
# 
# From -- ./inp_files/6192.got.cif
#   From: 2010.05.17/outbox.cif.g08.bks.cpg/sg137_4_cif.got.tgz:6192.got - 2010.05.20 13:01:12.
