data_PCOD9570624
_publ_section_title
;
Structure prediction by ZEFSAII (Michael W. Deem and Ramdas Pophale) SiO2 
 PCOD9570624
Probable space group: P 42/N C M
;
_chemical_formula_sum "Si O2"
_cell_formula_units_Z 72
_cell_length_a 16.741148
_cell_length_b 16.741148
_cell_length_c 12.518123
_cell_angle_alpha 90.000000
_cell_angle_beta 90.000000
_cell_angle_gamma 90.000000
_cell_volume 3508.404716
_symmetry_space_group_name_H-M "P 42/N C M"
_symmetry_group_IT_number 138
_space_group.IT_coordinate_system_code '2'
_symmetry_cell_setting 'tetragonal'
loop_
_space_group_symop_operation_xyz
x,y,z
1/2-y,x,1/2+z
1/2-x,1/2-y,z
y,1/2-x,1/2+z
1/2+x,-y,1/2-z
-x,1/2+y,1/2-z
1/2+y,1/2+x,-z
-y,-x,-z
-x,-y,-z
1/2+y,-x,1/2-z
1/2+x,1/2+y,-z
-y,1/2+x,1/2-z
1/2-x,y,1/2+z
x,1/2-y,1/2+z
1/2-y,1/2-x,z
y,x,z
loop_
_atom_site_type_symbol
_atom_site_label
_atom_site_fract_x
_atom_site_fract_y
_atom_site_fract_z
Si Si1 0.384125 0.115876 0.265915
Si Si2 0.615753 0.241278 0.752903
Si Si3 0.321238 0.178763 0.493287
Si Si4 0.001738 0.001738 0.365715
Si Si5 0.448603 0.660634 0.564824
Si Si6 0.737888 0.537303 0.383603
O O1 0.357336 0.142665 0.383549
O O2 0.304235 0.082254 0.212877
O O3 0.449140 0.050861 0.217139
O O4 0.667998 0.321410 0.743743
O O5 0.572040 0.238264 0.867541
O O6 0.548196 0.233029 0.662005
O O7 0.250000 0.250000 0.483977
O O8 0.397522 0.208820 0.559340
O O9 0.977451 0.093549 0.351651
O O10 0.000000 0.000000 0.500000
O O11 0.372565 0.627436 0.500000
O O12 0.514371 0.674326 0.475214
#
# Coordination Sequence:
#
# PCOD9570624 Si02
#       6
#     8  16   8   8  16  16
#     4  12  22  44  70 100 139 181 236 298 356 433
#     4  11  24  42  68 104 144 192 241 296 362 434
#     4  12  30  45  71 109 146 196 246 309 376 437
#     4  10  18  37  71  95 131 178 235 290 342 416
#     4  11  20  40  69 102 132 186 236 294 350 433
#     4  12  24  46  69 103 148 184 242 302 367 436
#
# _framework density 20.522148000000001
#
# number of rings (size 3 to 8) (size 9 to 14) (size 15 to 20)
#    0.000    0.667    7.778    1.333    1.556    1.778 
#    0.000    1.111    0.000    6.667    0.000    0.000 
#    0.000    0.000    0.000    0.000    0.000    0.000 
#
# Total GULP energy -400854.911473 kJ/mol
# GULP energy per Si atom -5567.429326 kJ/mol
# Density = 2.047544 g / cm^3
# Si number density = 20.522148 Si / 1000 Ang^3
#
#
#
# Elastic Constant Matrix: (Units=GPa)
#
#
# Indices 1 2 3 4 5 6 
#
# 1 104.0509 64.9245 66.5875 0.0000 0.0000 0.0000
# 2 64.9245 104.0509 66.5881 0.0000 0.0000 0.0000
# 3 66.5875 66.5881 95.5315 0.0000 0.0000 0.0000
# 4 0.0000 0.0000 0.0000 -26.4308 0.0000 0.0000
# 5 0.0000 0.0000 0.0000 0.0000 -26.4371 0.0000
# 6 0.0000 0.0000 0.0000 0.0000 0.0000 31.3299
#
#
#
# Elastic Compliance Matrix: (Units=1/GPa)
#
#
# Indices 1 2 3 4 5 6 
#
# 1 0.019345 -0.006213 -0.009153 0.000000 0.000000 0.000000
# 2 -0.006213 0.019345 -0.009154 0.000000 0.000000 0.000000
# 3 -0.009153 -0.009154 0.023228 0.000000 0.000000 0.000000
# 4 0.000000 0.000000 0.000000 -0.037835 0.000000 0.000000
# 5 0.000000 0.000000 0.000000 0.000000 -0.037826 0.000000
# 6 0.000000 0.000000 0.000000 0.000000 0.000000 0.031918
#
#
# Mechanical properties :
#
#
# Convention : Reuss Voigt Hill
#
# Bulk Modulus (GPa) = 77.64780 77.75930 77.70355
# Shear Modulus (GPa) = 69.92071 2.72793 36.32432
#
# Velocity S-wave (km/s) = 5.84336 1.15419 4.21171
# Velocity P-wave (km/s) = 9.13480 6.30467 7.84836
#
# Compressibility (1/GPa) = 0.01287867
#
# Stress axis : x y z
#
# Youngs Moduli (GPa) = 51.69270 51.69204 43.05117
#
# Poissons Ratio (x) = 0.32116 0.39406
# Poissons Ratio (y) = 0.32117 0.39408
# Poissons Ratio (z) = 0.47316 0.47317
#
# Static dielectric constant tensor:
#      x y z
#    x 2.303170 0.000000 0.000000 
#    y 0.000000 2.303160 0.000000 
#    z 0.000000 0.000000 1.746670 
# 
# From -- ./inp_files/2855.got.cif
#   From: 2010.05.17/outbox.cif.g08.bks.cpg/sg138_2_cif.got.tgz:2855.got - 2010.05.20 13:08:53.
