data_PCOD9571934
_publ_section_title
;
Structure prediction by ZEFSAII (Michael W. Deem and Ramdas Pophale) SiO2 
 PCOD9571934
Probable space group: I 4/M M M
;
_chemical_formula_sum "Si O2"
_cell_formula_units_Z 96
_cell_length_a 24.450473
_cell_length_b 24.450473
_cell_length_c 10.404054
_cell_angle_alpha 90.000000
_cell_angle_beta 90.000000
_cell_angle_gamma 90.000000
_cell_volume 6219.810136
_symmetry_space_group_name_H-M "I 4/M M M"
_symmetry_group_IT_number 139
_symmetry_cell_setting 'tetragonal'
loop_
_space_group_symop_operation_xyz
x,y,z
-y,x,z
-x,-y,z
y,-x,z
x,-y,-z
-x,y,-z
y,x,-z
-y,-x,-z
-x,-y,-z
y,-x,-z
x,y,-z
-y,x,-z
-x,y,z
x,-y,z
-y,-x,z
y,x,z
1/2+x,1/2+y,1/2+z
1/2-y,1/2+x,1/2+z
1/2-x,1/2-y,1/2+z
1/2+y,1/2-x,1/2+z
1/2+x,1/2-y,1/2-z
1/2-x,1/2+y,1/2-z
1/2+y,1/2+x,1/2-z
1/2-y,1/2-x,1/2-z
1/2-x,1/2-y,1/2-z
1/2+y,1/2-x,1/2-z
1/2+x,1/2+y,1/2-z
1/2-y,1/2+x,1/2-z
1/2-x,1/2+y,1/2+z
1/2+x,1/2-y,1/2+z
1/2-y,1/2-x,1/2+z
1/2+y,1/2+x,1/2+z
loop_
_atom_site_type_symbol
_atom_site_label
_atom_site_fract_x
_atom_site_fract_y
_atom_site_fract_z
Si Si1 0.776554 0.435512 0.345697
Si Si2 0.117601 0.382400 0.750000
Si Si3 0.849650 0.062136 0.843646
Si Si4 0.936669 0.565385 0.000000
O O1 0.782192 0.427156 0.500000
O O2 0.788322 0.500000 0.321623
O O3 0.819241 0.397623 0.271738
O O4 0.713324 0.425555 0.309779
O O5 0.093366 0.412599 0.874375
O O6 0.893139 0.106862 0.798298
O O7 0.862678 0.000000 0.802461
O O8 0.851143 0.062003 0.000000
O O9 0.936375 0.500000 0.000000
O O10 0.000000 0.584125 0.000000
#
# Coordination Sequence:
#
# PCOD9571934 Si02
#       4
#    32  16  32  16
#     4   9  17  30  45  62  88 124 161 193 231 282
#     4  12  20  31  47  64  88 124 162 196 234 285
#     4   8  14  25  43  67  94 122 152 188 231 280
#     4  11  22  32  44  64  89 116 154 208 255 282
#
# _framework density 15.434555
#
# number of rings (size 3 to 8) (size 9 to 14) (size 15 to 20)
#    0.000    2.500    1.667    5.000    0.000    1.667 
#    0.000    2.500    0.000    0.000    0.000    0.000 
#    0.000    0.000    0.000    0.000    0.000   15.333 
#
# Total GULP energy -267488.823805 kJ/mol
# GULP energy per Si atom -5572.683829 kJ/mol
# Density = 1.539943 g / cm^3
# Si number density = 15.434555 Si / 1000 Ang^3
#
#
#
# Elastic Constant Matrix: (Units=GPa)
#
#
# Indices 1 2 3 4 5 6 
#
# 1 125.0140 100.5350 30.3124 0.0000 0.0000 0.0000
# 2 100.5350 125.0126 30.3123 0.0000 0.0000 0.0000
# 3 30.3124 30.3123 53.6055 0.0000 0.0000 0.0000
# 4 0.0000 0.0000 0.0000 16.3453 0.0000 0.0000
# 5 0.0000 0.0000 0.0000 0.0000 16.3460 0.0000
# 6 0.0000 0.0000 0.0000 0.0000 0.0000 30.1777
#
#
#
# Elastic Compliance Matrix: (Units=1/GPa)
#
#
# Indices 1 2 3 4 5 6 
#
# 1 0.023040 -0.017812 -0.002956 0.000000 0.000000 0.000000
# 2 -0.017812 0.023041 -0.002957 0.000000 0.000000 0.000000
# 3 -0.002956 -0.002957 0.021998 0.000000 0.000000 0.000000
# 4 0.000000 0.000000 0.000000 0.061180 0.000000 0.000000
# 5 0.000000 0.000000 0.000000 0.000000 0.061177 0.000000
# 6 0.000000 0.000000 0.000000 0.000000 0.000000 0.033137
#
#
# Mechanical properties :
#
#
# Convention : Reuss Voigt Hill
#
# Bulk Modulus (GPa) = 48.47504 69.55018 59.01261
# Shear Modulus (GPa) = 17.99212 22.07197 20.03204
#
# Velocity S-wave (km/s) = 3.41794 3.78568 3.60650
# Velocity P-wave (km/s) = 6.85941 8.01671 7.46054
#
# Compressibility (1/GPa) = 0.02062917
#
# Stress axis : x y z
#
# Youngs Moduli (GPa) = 43.40220 43.40167 45.45786
#
# Poissons Ratio (x) = 0.77308 0.13439
# Poissons Ratio (y) = 0.77309 0.13440
# Poissons Ratio (z) = 0.12831 0.12832
#
# Static dielectric constant tensor:
#      x y z
#    x 1.522510 0.000000 0.000000 
#    y 0.000000 1.522520 0.000000 
#    z 0.000000 0.000000 1.486530 
# 
# From -- ./inp_files/1132.got.cif
#   From: 2010.05.17/outbox.cif.g08.bks.cpg/sg139_1_cif.got.tgz:1132.got - 2010.05.20 13:14:44.
