data_PCOD9571033
_publ_section_title
;
Structure prediction by ZEFSAII (Michael W. Deem and Ramdas Pophale) SiO2 
 PCOD9571033
Probable space group: P 42/N C M
;
_chemical_formula_sum "Si O2"
_cell_formula_units_Z 64
_cell_length_a 17.900037
_cell_length_b 17.900037
_cell_length_c 8.692235
_cell_angle_alpha 90.000000
_cell_angle_beta 90.000000
_cell_angle_gamma 90.000000
_cell_volume 2785.090530
_symmetry_space_group_name_H-M "P 42/N C M"
_symmetry_group_IT_number 138
_space_group.IT_coordinate_system_code '2'
_symmetry_cell_setting 'tetragonal'
loop_
_space_group_symop_operation_xyz
x,y,z
1/2-y,x,1/2+z
1/2-x,1/2-y,z
y,1/2-x,1/2+z
1/2+x,-y,1/2-z
-x,1/2+y,1/2-z
1/2+y,1/2+x,-z
-y,-x,-z
-x,-y,-z
1/2+y,-x,1/2-z
1/2+x,1/2+y,-z
-y,1/2+x,1/2-z
1/2-x,y,1/2+z
x,1/2-y,1/2+z
1/2-y,1/2-x,z
y,x,z
loop_
_atom_site_type_symbol
_atom_site_label
_atom_site_fract_x
_atom_site_fract_y
_atom_site_fract_z
Si Si1 0.750000 0.250000 0.250000
Si Si2 0.778706 0.999455 0.475883
Si Si3 0.532137 0.088553 0.829486
Si Si4 0.750000 0.750000 0.636126
Si Si5 0.661106 0.838895 0.885085
Si Si6 0.184923 0.592369 0.319334
O O1 0.726204 0.327134 0.160652
O O2 0.810167 0.924344 0.394348
O O3 0.831499 0.000164 0.626937
O O4 0.790997 0.063331 0.349514
O O5 0.702733 0.027638 0.556733
O O6 0.596901 0.099096 0.706994
O O7 0.470030 0.029971 0.779550
O O8 0.560847 0.060847 0.000000
O O9 0.697954 0.802047 0.737570
O O10 0.698804 0.698804 0.531997
#
# Coordination Sequence:
#
# PCOD9571033 Si02
#       6
#     4  16  16   4   8  16
#     4  12  24  42  60  94 144 166 224 270 316 398
#     4  11  22  40  63  92 121 168 211 264 317 387
#     4   9  18  37  59  84 114 161 213 246 298 378
#     4  10  24  42  68 100 124 166 202 286 344 370
#     4  11  22  44  69  95 132 158 221 270 326 400
#     4  11  24  38  63  92 126 174 213 263 323 373
#
# _framework density 22.979503999999999
#
# number of rings (size 3 to 8) (size 9 to 14) (size 15 to 20)
#    0.000    1.500    3.750    1.500    1.750    2.000 
#    4.500    0.000    0.000    1.500    0.000    0.000 
#    0.000    0.000    0.000    0.000    0.000    0.000 
#
# Total GULP energy -356543.094482 kJ/mol
# GULP energy per Si atom -5570.985851 kJ/mol
# Density = 2.292720 g / cm^3
# Si number density = 22.979504 Si / 1000 Ang^3
#
#
#
# Elastic Constant Matrix: (Units=GPa)
#
#
# Indices 1 2 3 4 5 6 
#
# 1 109.1174 48.8825 28.6263 0.0000 0.0000 0.0000
# 2 48.8825 109.1174 28.6263 0.0000 0.0000 0.0000
# 3 28.6263 28.6263 52.0156 0.0000 0.0000 0.0000
# 4 0.0000 0.0000 0.0000 38.5575 0.0000 0.0000
# 5 0.0000 0.0000 0.0000 0.0000 38.5575 0.0000
# 6 0.0000 0.0000 0.0000 0.0000 0.0000 33.3241
#
#
#
# Elastic Compliance Matrix: (Units=1/GPa)
#
#
# Indices 1 2 3 4 5 6 
#
# 1 0.012254 -0.004348 -0.004351 0.000000 0.000000 0.000000
# 2 -0.004348 0.012254 -0.004351 0.000000 0.000000 0.000000
# 3 -0.004351 -0.004351 0.024014 0.000000 0.000000 0.000000
# 4 0.000000 0.000000 0.000000 0.025935 0.000000 0.000000
# 5 0.000000 0.000000 0.000000 0.000000 0.025935 0.000000
# 6 0.000000 0.000000 0.000000 0.000000 0.000000 0.030008
#
#
# Mechanical properties :
#
#
# Convention : Reuss Voigt Hill
#
# Bulk Modulus (GPa) = 44.59915 53.61339 49.10627
# Shear Modulus (GPa) = 30.49276 33.02884 31.76080
#
# Velocity S-wave (km/s) = 3.64669 3.79531 3.72174
# Velocity P-wave (km/s) = 6.09766 6.52591 6.31542
#
# Compressibility (1/GPa) = 0.02242195
#
# Stress axis : x y z
#
# Youngs Moduli (GPa) = 81.60820 81.60820 41.64259
#
# Poissons Ratio (x) = 0.35483 0.18118
# Poissons Ratio (y) = 0.35483 0.18118
# Poissons Ratio (z) = 0.35506 0.35506
#
# Static dielectric constant tensor:
#      x y z
#    x 1.949230 0.000000 0.000000 
#    y 0.000000 1.949230 0.000000 
#    z 0.000000 0.000000 1.818030 
# 
# From -- ./inp_files/1472.got.cif
#   From: 2010.05.17/outbox.cif.g08.bks.cpg/sg138_1_cif.got.tgz:1472.got - 2010.05.20 13:08:53.
