data_PCOD9571027
_publ_section_title
;
Structure prediction by ZEFSAII (Michael W. Deem and Ramdas Pophale) SiO2 
 PCOD9571027
Probable space group: P 42/N C M
;
_chemical_formula_sum "Si O2"
_cell_formula_units_Z 56
_cell_length_a 14.716221
_cell_length_b 14.716221
_cell_length_c 10.478810
_cell_angle_alpha 90.000000
_cell_angle_beta 90.000000
_cell_angle_gamma 90.000000
_cell_volume 2269.366127
_symmetry_space_group_name_H-M "P 42/N C M"
_symmetry_group_IT_number 138
_space_group.IT_coordinate_system_code '2'
_symmetry_cell_setting 'tetragonal'
loop_
_space_group_symop_operation_xyz
x,y,z
1/2-y,x,1/2+z
1/2-x,1/2-y,z
y,1/2-x,1/2+z
1/2+x,-y,1/2-z
-x,1/2+y,1/2-z
1/2+y,1/2+x,-z
-y,-x,-z
-x,-y,-z
1/2+y,-x,1/2-z
1/2+x,1/2+y,-z
-y,1/2+x,1/2-z
1/2-x,y,1/2+z
x,1/2-y,1/2+z
1/2-y,1/2-x,z
y,x,z
loop_
_atom_site_type_symbol
_atom_site_label
_atom_site_fract_x
_atom_site_fract_y
_atom_site_fract_z
Si Si1 0.130535 0.593978 0.790447
Si Si2 0.901509 0.098492 0.000000
Si Si3 0.750000 0.750000 0.090601
Si Si4 0.918489 0.918489 0.348368
Si Si5 0.250000 0.750000 0.750000
Si Si6 0.888328 0.888328 0.062438
Si Si7 0.613544 0.886457 0.139726
O O1 0.138195 0.612601 0.639318
O O2 0.198475 0.672308 0.835562
O O3 0.144630 0.486684 0.815365
O O4 0.027013 0.602286 0.840013
O O5 0.007487 0.124047 0.976830
O O6 0.816545 0.816545 0.011402
O O7 0.686742 0.813259 0.176008
O O8 0.881264 0.881264 0.215742
O O9 0.886990 0.886990 0.485676
#
# Coordination Sequence:
#
# PCOD9571027 Si02
#       7
#    16   8   4   8   4   8   8
#     4  10  23  46  69 101 140 179 237 284 353 413
#     4   9  20  45  74  90 134 190 226 294 356 410
#     4  12  28  40  68 108 142 182 246 284 342 428
#     4   9  21  47  75  88 138 187 226 289 357 410
#     4  12  28  42  68 116 138 184 242 296 336 422
#     4   9  20  42  66 101 128 178 239 287 345 421
#     4  11  25  48  69 103 143 188 228 288 356 417
#
# _framework density 24.676494999999999
#
# number of rings (size 3 to 8) (size 9 to 14) (size 15 to 20)
#    0.000    2.000    0.000    4.286    8.000    3.429 
#   10.286    0.000    0.000    0.000    0.000    0.000 
#    0.000    0.000    0.000    0.000    0.000    0.000 
#
# Total GULP energy -312398.409265 kJ/mol
# GULP energy per Si atom -5578.543023 kJ/mol
# Density = 2.462033 g / cm^3
# Si number density = 24.676495 Si / 1000 Ang^3
#
#
#
# Elastic Constant Matrix: (Units=GPa)
#
#
# Indices 1 2 3 4 5 6 
#
# 1 136.4192 129.7816 24.0778 0.0000 0.0000 0.0000
# 2 129.7816 136.4184 24.0772 0.0000 0.0000 0.0000
# 3 24.0778 24.0772 120.3104 0.0000 0.0000 0.0000
# 4 0.0000 0.0000 0.0000 -9.6205 0.0000 0.0000
# 5 0.0000 0.0000 0.0000 0.0000 -9.6205 0.0000
# 6 0.0000 0.0000 0.0000 0.0000 0.0000 69.7577
#
#
#
# Elastic Compliance Matrix: (Units=1/GPa)
#
#
# Indices 1 2 3 4 5 6 
#
# 1 0.077281 -0.073384 -0.000780 0.000000 0.000000 0.000000
# 2 -0.073384 0.077282 -0.000780 0.000000 0.000000 0.000000
# 3 -0.000780 -0.000780 0.008624 0.000000 0.000000 0.000000
# 4 0.000000 0.000000 0.000000 -0.103945 0.000000 0.000000
# 5 0.000000 0.000000 0.000000 0.000000 -0.103945 0.000000
# 6 0.000000 0.000000 0.000000 0.000000 0.000000 0.014335
#
#
# Mechanical properties :
#
#
# Convention : Reuss Voigt Hill
#
# Bulk Modulus (GPa) = 75.19216 83.22458 79.20837
# Shear Modulus (GPa) = 40.33805 24.45079 32.39442
#
# Velocity S-wave (km/s) = 4.04750 3.15120 3.62714
# Velocity P-wave (km/s) = 7.23742 6.85854 7.05053
#
# Compressibility (1/GPa) = 0.01329926
#
# Stress axis : x y z
#
# Youngs Moduli (GPa) = 12.93975 12.93970 115.95486
#
# Poissons Ratio (x) = 0.94956 0.09049
# Poissons Ratio (y) = 0.94957 0.09041
# Poissons Ratio (z) = 0.01010 0.01009
#
# Static dielectric constant tensor:
#      x y z
#    x 2.028290 0.000000 0.000000 
#    y 0.000000 2.028300 0.000000 
#    z 0.000000 0.000000 1.923240 
# 
# From -- ./inp_files/2587.got.cif
#   From: 2010.05.17/outbox.cif.g08.bks.cpg/sg138_2_cif.got.tgz:2587.got - 2010.05.20 13:08:53.
