data_PCOD9571124
_publ_section_title
;
Structure prediction by ZEFSAII (Michael W. Deem and Ramdas Pophale) SiO2 
 PCOD9571124
Probable space group: P 42/N C M
;
_chemical_formula_sum "Si O2"
_cell_formula_units_Z 80
_cell_length_a 9.696778
_cell_length_b 9.696778
_cell_length_c 32.401697
_cell_angle_alpha 90.000000
_cell_angle_beta 90.000000
_cell_angle_gamma 90.000000
_cell_volume 3046.650681
_symmetry_space_group_name_H-M "P 42/N C M"
_symmetry_group_IT_number 138
_space_group.IT_coordinate_system_code '2'
_symmetry_cell_setting 'tetragonal'
loop_
_space_group_symop_operation_xyz
x,y,z
1/2-y,x,1/2+z
1/2-x,1/2-y,z
y,1/2-x,1/2+z
1/2+x,-y,1/2-z
-x,1/2+y,1/2-z
1/2+y,1/2+x,-z
-y,-x,-z
-x,-y,-z
1/2+y,-x,1/2-z
1/2+x,1/2+y,-z
-y,1/2+x,1/2-z
1/2-x,y,1/2+z
x,1/2-y,1/2+z
1/2-y,1/2-x,z
y,x,z
loop_
_atom_site_type_symbol
_atom_site_label
_atom_site_fract_x
_atom_site_fract_y
_atom_site_fract_z
Si Si1 0.028690 0.267530 0.421709
Si Si2 0.310754 0.951057 0.100260
Si Si3 0.256217 0.024260 0.279086
Si Si4 0.443420 0.681422 0.311128
Si Si5 0.001499 0.226462 0.511972
O O1 0.103675 0.396326 0.400294
O O2 0.144715 0.144715 0.422360
O O3 0.896085 0.191967 0.403474
O O4 0.001303 0.306916 0.469425
O O5 0.243742 0.957565 0.145140
O O6 0.224874 0.971407 0.058360
O O7 0.427275 0.072726 0.098567
O O8 0.405354 0.094647 0.285350
O O9 0.145986 0.145986 0.285693
O O10 0.202292 0.898423 0.306536
O O11 0.242146 0.974574 0.231542
O O12 0.560979 0.560979 0.312165
O O13 0.887115 0.112886 0.500000
O O14 0.145093 0.145093 0.514301
#
# Coordination Sequence:
#
# PCOD9571124 Si02
#       5
#    16  16  16  16  16
#     4   8  12  17  27  46  73 106 146 190 232 275
#     4   8  13  21  33  49  72 106 149 191 230 278
#     4   9  18  32  48  67  92 120 154 197 242 293
#     4   9  17  29  45  64  87 120 159 199 247 295
#     4   7  10  17  27  40  64  99 135 171 213 261
#
# _framework density 26.258344999999998
#
# number of rings (size 3 to 8) (size 9 to 14) (size 15 to 20)
#    0.000    3.800    0.000    2.400    0.000    1.200 
#    0.000    5.000    0.000    6.000    0.000    0.000 
#    0.000    0.000    0.000   32.400    0.000  198.800 
#
# Total GULP energy -446681.022082 kJ/mol
# GULP energy per Si atom -5583.512776 kJ/mol
# Density = 2.619858 g / cm^3
# Si number density = 26.258345 Si / 1000 Ang^3
#
#
#
# Elastic Constant Matrix: (Units=GPa)
#
#
# Indices 1 2 3 4 5 6 
#
# 1 76.2023 24.6022 8.4200 0.0000 0.0000 0.0000
# 2 24.6022 76.2010 8.4205 0.0000 0.0000 0.0000
# 3 8.4200 8.4205 128.9368 0.0000 0.0000 0.0000
# 4 0.0000 0.0000 0.0000 19.8059 0.0000 0.0000
# 5 0.0000 0.0000 0.0000 0.0000 19.8069 0.0000
# 6 0.0000 0.0000 0.0000 0.0000 0.0000 25.1046
#
#
#
# Elastic Compliance Matrix: (Units=1/GPa)
#
#
# Indices 1 2 3 4 5 6 
#
# 1 0.014705 -0.004675 -0.000655 0.000000 0.000000 0.000000
# 2 -0.004675 0.014705 -0.000655 0.000000 0.000000 0.000000
# 3 -0.000655 -0.000655 0.007841 0.000000 0.000000 0.000000
# 4 0.000000 0.000000 0.000000 0.050490 0.000000 0.000000
# 5 0.000000 0.000000 0.000000 0.000000 0.050488 0.000000
# 6 0.000000 0.000000 0.000000 0.000000 0.000000 0.039833
#
#
# Mechanical properties :
#
#
# Convention : Reuss Voigt Hill
#
# Bulk Modulus (GPa) = 39.55587 40.46948 40.01268
# Shear Modulus (GPa) = 25.19409 28.93661 27.06535
#
# Velocity S-wave (km/s) = 3.10089 3.32324 3.21399
# Velocity P-wave (km/s) = 5.28370 5.49279 5.38926
#
# Compressibility (1/GPa) = 0.02528070
#
# Stress axis : x y z
#
# Youngs Moduli (GPa) = 68.00529 68.00405 127.53005
#
# Poissons Ratio (x) = 0.31793 0.08352
# Poissons Ratio (y) = 0.31794 0.08354
# Poissons Ratio (z) = 0.04454 0.04455
#
# Static dielectric constant tensor:
#      x y z
#    x 2.120740 0.000000 0.000000 
#    y 0.000000 2.120750 0.000000 
#    z 0.000000 0.000000 1.994180 
# 
# From -- ./inp_files/7867.got.cif
#   From: 2010.05.17/outbox.cif.g08.bks.cpg/sg138_4_cif.got.tgz:7867.got - 2010.05.20 13:08:53.
