data_PCOD9571075
_publ_section_title
;
Structure prediction by ZEFSAII (Michael W. Deem and Ramdas Pophale) SiO2 
 PCOD9571075
Probable space group: P 42/N C M
;
_chemical_formula_sum "Si O2"
_cell_formula_units_Z 64
_cell_length_a 20.780050
_cell_length_b 20.780050
_cell_length_c 7.310938
_cell_angle_alpha 90.000000
_cell_angle_beta 90.000000
_cell_angle_gamma 90.000000
_cell_volume 3156.939632
_symmetry_space_group_name_H-M "P 42/N C M"
_symmetry_group_IT_number 138
_space_group.IT_coordinate_system_code '2'
_symmetry_cell_setting 'tetragonal'
loop_
_space_group_symop_operation_xyz
x,y,z
1/2-y,x,1/2+z
1/2-x,1/2-y,z
y,1/2-x,1/2+z
1/2+x,-y,1/2-z
-x,1/2+y,1/2-z
1/2+y,1/2+x,-z
-y,-x,-z
-x,-y,-z
1/2+y,-x,1/2-z
1/2+x,1/2+y,-z
-y,1/2+x,1/2-z
1/2-x,y,1/2+z
x,1/2-y,1/2+z
1/2-y,1/2-x,z
y,x,z
loop_
_atom_site_type_symbol
_atom_site_label
_atom_site_fract_x
_atom_site_fract_y
_atom_site_fract_z
Si Si1 0.315088 0.667463 0.209170
Si Si2 0.199479 0.483534 0.284651
Si Si3 0.040316 0.826330 0.583512
Si Si4 0.827067 0.928191 0.846221
O O1 0.340522 0.608796 0.329505
O O2 0.516442 0.646207 0.711697
O O3 0.337018 0.662983 0.000000
O O4 0.333315 0.736924 0.291328
O O5 0.162429 0.520980 0.125991
O O6 0.249936 0.433226 0.189974
O O7 0.248563 0.531955 0.388520
O O8 0.161390 0.449098 0.444869
O O9 0.861028 0.861028 0.807522
#
# Coordination Sequence:
#
# PCOD9571075 Si02
#       4
#    16  16  16  16
#     4  11  22  34  49  82 115 142 179 223 276 326
#     4   8  17  31  52  78 101 142 178 220 274 317
#     4   9  17  34  52  75 108 146 182 218 271 319
#     4   9  17  32  55  81 105 140 188 221 265 334
#
# _framework density 20.2728
#
# number of rings (size 3 to 8) (size 9 to 14) (size 15 to 20)
#    1.500    1.250    0.000    3.000    0.000    1.000 
#    0.000    0.000    0.000    3.000    0.000    1.750 
#    0.000    0.000    0.000    0.000    0.000    0.000 
#
# Total GULP energy -356543.221228 kJ/mol
# GULP energy per Si atom -5570.987832 kJ/mol
# Density = 2.022666 g / cm^3
# Si number density = 20.272800 Si / 1000 Ang^3
#
#
#
# Elastic Constant Matrix: (Units=GPa)
#
#
# Indices 1 2 3 4 5 6 
#
# 1 36.2751 28.8840 0.6652 0.0000 0.0000 0.0000
# 2 28.8840 36.2757 0.6655 0.0000 0.0000 0.0000
# 3 0.6652 0.6655 94.6285 0.0000 0.0000 0.0000
# 4 0.0000 0.0000 0.0000 8.5822 0.0000 0.0000
# 5 0.0000 0.0000 0.0000 0.0000 8.5820 0.0000
# 6 0.0000 0.0000 0.0000 0.0000 0.0000 15.2356
#
#
#
# Elastic Compliance Matrix: (Units=1/GPa)
#
#
# Indices 1 2 3 4 5 6 
#
# 1 0.075321 -0.059971 -0.000108 0.000000 0.000000 0.000000
# 2 -0.059971 0.075320 -0.000108 0.000000 0.000000 0.000000
# 3 -0.000108 -0.000108 0.010569 0.000000 0.000000 0.000000
# 4 0.000000 0.000000 0.000000 0.116521 0.000000 0.000000
# 5 0.000000 0.000000 0.000000 0.000000 0.116523 0.000000
# 6 0.000000 0.000000 0.000000 0.000000 0.000000 0.065636
#
#
# Mechanical properties :
#
#
# Convention : Reuss Voigt Hill
#
# Bulk Modulus (GPa) = 24.48830 25.28986 24.88908
# Shear Modulus (GPa) = 8.41926 15.61093 12.01509
#
# Velocity S-wave (km/s) = 2.04010 2.77798 2.43712
# Velocity P-wave (km/s) = 4.20178 4.77403 4.49702
#
# Compressibility (1/GPa) = 0.04083583
#
# Stress axis : x y z
#
# Youngs Moduli (GPa) = 13.27646 13.27669 94.61496
#
# Poissons Ratio (x) = 0.79622 0.01019
# Poissons Ratio (y) = 0.79621 0.01023
# Poissons Ratio (z) = 0.00143 0.00144
#
# Static dielectric constant tensor:
#      x y z
#    x 1.741820 0.000000 0.000000 
#    y 0.000000 1.741820 0.000000 
#    z 0.000000 0.000000 1.772770 
# 
# From -- ./inp_files/1390.got.cif
#   From: 2010.05.17/outbox.cif.g08.bks.cpg/sg138_1_cif.got.tgz:1390.got - 2010.05.20 13:08:53.
