data_PCOD9571254
_publ_section_title
;
Structure prediction by ZEFSAII (Michael W. Deem and Ramdas Pophale) SiO2 
 PCOD9571254
Probable space group: I 4/M M M
;
_chemical_formula_sum "Si O2"
_cell_formula_units_Z 176
_cell_length_a 27.255611
_cell_length_b 27.255611
_cell_length_c 13.404878
_cell_angle_alpha 90.000000
_cell_angle_beta 90.000000
_cell_angle_gamma 90.000000
_cell_volume 9958.059347
_symmetry_space_group_name_H-M "I 4/M M M"
_symmetry_group_IT_number 139
_symmetry_cell_setting 'tetragonal'
loop_
_space_group_symop_operation_xyz
x,y,z
-y,x,z
-x,-y,z
y,-x,z
x,-y,-z
-x,y,-z
y,x,-z
-y,-x,-z
-x,-y,-z
y,-x,-z
x,y,-z
-y,x,-z
-x,y,z
x,-y,z
-y,-x,z
y,x,z
1/2+x,1/2+y,1/2+z
1/2-y,1/2+x,1/2+z
1/2-x,1/2-y,1/2+z
1/2+y,1/2-x,1/2+z
1/2+x,1/2-y,1/2-z
1/2-x,1/2+y,1/2-z
1/2+y,1/2+x,1/2-z
1/2-y,1/2-x,1/2-z
1/2-x,1/2-y,1/2-z
1/2+y,1/2-x,1/2-z
1/2+x,1/2+y,1/2-z
1/2-y,1/2+x,1/2-z
1/2-x,1/2+y,1/2+z
1/2+x,1/2-y,1/2+z
1/2-y,1/2-x,1/2+z
1/2+y,1/2+x,1/2+z
loop_
_atom_site_type_symbol
_atom_site_label
_atom_site_fract_x
_atom_site_fract_y
_atom_site_fract_z
Si Si1 0.395620 0.684597 0.193104
Si Si2 0.057217 0.141763 0.500000
Si Si3 0.226116 0.942371 0.110003
Si Si4 0.164661 0.556985 0.692166
Si Si5 0.882306 0.348113 0.384119
Si Si6 0.761452 0.315034 0.881190
O O1 0.364389 0.635612 0.205986
O O2 0.420518 0.697763 0.296632
O O3 0.356756 0.727226 0.166330
O O4 0.430428 0.674177 0.098272
O O5 0.095320 0.095320 0.500000
O O6 0.000000 0.127369 0.500000
O O7 0.283665 0.938058 0.135740
O O8 0.214949 0.000000 0.106056
O O9 0.216297 0.920740 0.000000
O O10 0.149997 0.500000 0.690357
O O11 0.128101 0.595052 0.639167
O O12 0.169648 0.576836 0.805676
O O13 0.894887 0.340540 0.500000
O O14 0.832052 0.317175 0.362185
O O15 0.737978 0.262023 0.854195
O O16 0.755490 0.318965 0.000000
#
# Coordination Sequence:
#
# PCOD9571254 Si02
#       6
#    32  16  32  32  32  32
#     4  10  18  31  50  76 108 141 178 223 276 327
#     4  10  20  33  52  78 110 148 189 233 285 339
#     4  10  20  34  51  72 103 144 185 222 266 319
#     4  10  21  37  55  79 110 141 175 224 276 319
#     4  10  20  35  57  83 109 140 183 225 271 336
#     4   9  16  30  52  79 114 146 170 211 269 324
#
# _framework density 17.674126999999999
#
# number of rings (size 3 to 8) (size 9 to 14) (size 15 to 20)
#    0.000    2.182    2.727    1.091    0.000    1.909 
#    0.000    2.727    0.000    6.545    0.000    5.091 
#    0.000    0.000    0.000   16.909    0.000    0.000 
#
# Total GULP energy -490364.180019 kJ/mol
# GULP energy per Si atom -5572.320227 kJ/mol
# Density = 1.763390 g / cm^3
# Si number density = 17.674127 Si / 1000 Ang^3
#
#
#
# Elastic Constant Matrix: (Units=GPa)
#
#
# Indices 1 2 3 4 5 6 
#
# 1 110.3032 -29.3347 28.2978 0.0000 0.0000 0.0000
# 2 -29.3347 110.3032 28.2978 0.0000 0.0000 0.0000
# 3 28.2978 28.2978 157.4901 0.0000 0.0000 0.0000
# 4 0.0000 0.0000 0.0000 22.8458 0.0000 0.0000
# 5 0.0000 0.0000 0.0000 0.0000 22.8458 0.0000
# 6 0.0000 0.0000 0.0000 0.0000 0.0000 12.0412
#
#
#
# Elastic Compliance Matrix: (Units=1/GPa)
#
#
# Indices 1 2 3 4 5 6 
#
# 1 0.010643 0.003482 -0.002538 0.000000 0.000000 0.000000
# 2 0.003482 0.010643 -0.002538 0.000000 0.000000 0.000000
# 3 -0.002538 -0.002538 0.007262 0.000000 0.000000 0.000000
# 4 0.000000 0.000000 0.000000 0.043772 0.000000 0.000000
# 5 0.000000 0.000000 0.000000 0.000000 0.043772 0.000000
# 6 0.000000 0.000000 0.000000 0.000000 0.000000 0.083048
#
#
# Mechanical properties :
#
#
# Convention : Reuss Voigt Hill
#
# Bulk Modulus (GPa) = 39.43383 48.06872 43.75127
# Shear Modulus (GPa) = 23.72135 34.93559 29.32847
#
# Velocity S-wave (km/s) = 3.66751 4.45078 4.07799
# Velocity P-wave (km/s) = 6.34778 7.32590 6.85431
#
# Compressibility (1/GPa) = 0.02535894
#
# Stress axis : x y z
#
# Youngs Moduli (GPa) = 93.95938 93.95938 137.71038
#
# Poissons Ratio (x) = -0.32712 0.34949
# Poissons Ratio (y) = -0.32712 0.34949
# Poissons Ratio (z) = 0.23846 0.23846
#
# Static dielectric constant tensor:
#      x y z
#    x 1.614040 0.000000 0.000000 
#    y 0.000000 1.614040 0.000000 
#    z 0.000000 0.000000 1.635450 
# 
# From -- ./inp_files/4018.got.cif
#   From: 2010.05.17/outbox.cif.g08.bks.cpg/sg139_3_cif.got.tgz:4018.got - 2010.05.20 13:14:44.
