data_PCOD9571087
_publ_section_title
;
Structure prediction by ZEFSAII (Michael W. Deem and Ramdas Pophale) SiO2 
 PCOD9571087
Probable space group: P 42/N C M
;
_chemical_formula_sum "Si O2"
_cell_formula_units_Z 48
_cell_length_a 13.119239
_cell_length_b 13.119239
_cell_length_c 13.810976
_cell_angle_alpha 90.000000
_cell_angle_beta 90.000000
_cell_angle_gamma 90.000000
_cell_volume 2377.068289
_symmetry_space_group_name_H-M "P 42/N C M"
_symmetry_group_IT_number 138
_space_group.IT_coordinate_system_code '2'
_symmetry_cell_setting 'tetragonal'
loop_
_space_group_symop_operation_xyz
x,y,z
1/2-y,x,1/2+z
1/2-x,1/2-y,z
y,1/2-x,1/2+z
1/2+x,-y,1/2-z
-x,1/2+y,1/2-z
1/2+y,1/2+x,-z
-y,-x,-z
-x,-y,-z
1/2+y,-x,1/2-z
1/2+x,1/2+y,-z
-y,1/2+x,1/2-z
1/2-x,y,1/2+z
x,1/2-y,1/2+z
1/2-y,1/2-x,z
y,x,z
loop_
_atom_site_type_symbol
_atom_site_label
_atom_site_fract_x
_atom_site_fract_y
_atom_site_fract_z
Si Si1 0.334441 0.660948 0.387661
Si Si2 0.509183 0.209957 0.723189
Si Si3 0.493061 0.006940 0.383222
Si Si4 0.327208 0.327208 0.806757
O O1 0.250000 0.750000 0.377217
O O2 0.354627 0.645374 0.500000
O O3 0.300391 0.562853 0.327915
O O4 0.433554 0.703880 0.336552
O O5 0.397959 0.252987 0.743157
O O6 0.527360 0.104484 0.664790
O O7 0.407275 0.092726 0.357459
O O8 0.500000 0.000000 0.500000
O O9 0.250000 0.250000 0.864286
#
# Coordination Sequence:
#
# PCOD9571087 Si02
#       4
#    16  16   8   8
#     4  11  22  39  70 102 134 182 242 292 356 436
#     4  12  23  46  68 101 143 187 238 302 359 431
#     4  12  28  47  74 104 147 196 239 299 374 432
#     4  12  26  48  71 101 144 188 234 303 361 426
#
# _framework density 20.192941999999999
#
# number of rings (size 3 to 8) (size 9 to 14) (size 15 to 20)
#    0.000    0.333    8.333    0.000    9.333    0.000 
#    3.000    3.333    0.000    0.000    0.000    0.000 
#    0.000    0.000    0.000    0.000    0.000    0.000 
#
# Total GULP energy -267852.442065 kJ/mol
# GULP energy per Si atom -5580.259210 kJ/mol
# Density = 2.014698 g / cm^3
# Si number density = 20.192942 Si / 1000 Ang^3
#
#
#
# Elastic Constant Matrix: (Units=GPa)
#
#
# Indices 1 2 3 4 5 6 
#
# 1 -118.2480 310.8136 56.6438 0.0000 0.0000 0.0000
# 2 310.8136 -118.2514 56.6396 0.0000 0.0000 0.0000
# 3 56.6438 56.6396 156.9873 0.0000 0.0000 0.0000
# 4 0.0000 0.0000 0.0000 23.1131 0.0000 0.0000
# 5 0.0000 0.0000 0.0000 0.0000 23.1133 0.0000
# 6 0.0000 0.0000 0.0000 0.0000 0.0000 55.9786
#
#
#
# Elastic Compliance Matrix: (Units=1/GPa)
#
#
# Indices 1 2 3 4 5 6 
#
# 1 0.002131 0.004462 -0.002379 0.000000 0.000000 0.000000
# 2 0.004462 0.002131 -0.002379 0.000000 0.000000 0.000000
# 3 -0.002379 -0.002379 0.008086 0.000000 0.000000 0.000000
# 4 0.000000 0.000000 0.000000 0.043266 0.000000 0.000000
# 5 0.000000 0.000000 0.000000 0.000000 0.043265 0.000000
# 6 0.000000 0.000000 0.000000 0.000000 0.000000 0.017864
#
#
# Mechanical properties :
#
#
# Convention : Reuss Voigt Hill
#
# Bulk Modulus (GPa) = 85.05689 85.40910 85.23300
# Shear Modulus (GPa) = 41.23613 -13.13294 14.05159
#
# Velocity S-wave (km/s) = 4.52387 -2.55301 2.64079
# Velocity P-wave (km/s) = 8.33671 5.80499 7.18327
#
# Compressibility (1/GPa) = 0.01175684
#
# Stress axis : x y z
#
# Youngs Moduli (GPa) = 469.29548 469.29686 123.66560
#
# Poissons Ratio (x) = -2.09377 0.29414
# Poissons Ratio (y) = -2.09377 0.29415
# Poissons Ratio (z) = 1.11623 1.11626
#
# Static dielectric constant tensor:
#      x y z
#    x 1.726570 0.000000 0.000000 
#    y 0.000000 1.726570 0.000000 
#    z 0.000000 0.000000 1.671520 
# 
# From -- ./inp_files/2434.got.cif
#   From: 2010.05.17/outbox.cif.g08.bks.cpg/sg138_2_cif.got.tgz:2434.got - 2010.05.20 13:08:53.
