data_PCOD9571474
_publ_section_title
;
Structure prediction by ZEFSAII (Michael W. Deem and Ramdas Pophale) SiO2 
 PCOD9571474
Probable space group: I 4/M M M
;
_chemical_formula_sum "Si O2"
_cell_formula_units_Z 192
_cell_length_a 19.027361
_cell_length_b 19.027361
_cell_length_c 32.124152
_cell_angle_alpha 90.000000
_cell_angle_beta 90.000000
_cell_angle_gamma 90.000000
_cell_volume 11630.242980
_symmetry_space_group_name_H-M "I 4/M M M"
_symmetry_group_IT_number 139
_symmetry_cell_setting 'tetragonal'
loop_
_space_group_symop_operation_xyz
x,y,z
-y,x,z
-x,-y,z
y,-x,z
x,-y,-z
-x,y,-z
y,x,-z
-y,-x,-z
-x,-y,-z
y,-x,-z
x,y,-z
-y,x,-z
-x,y,z
x,-y,z
-y,-x,z
y,x,z
1/2+x,1/2+y,1/2+z
1/2-y,1/2+x,1/2+z
1/2-x,1/2-y,1/2+z
1/2+y,1/2-x,1/2+z
1/2+x,1/2-y,1/2-z
1/2-x,1/2+y,1/2-z
1/2+y,1/2+x,1/2-z
1/2-y,1/2-x,1/2-z
1/2-x,1/2-y,1/2-z
1/2+y,1/2-x,1/2-z
1/2+x,1/2+y,1/2-z
1/2-y,1/2+x,1/2-z
1/2-x,1/2+y,1/2+z
1/2+x,1/2-y,1/2+z
1/2-y,1/2-x,1/2+z
1/2+y,1/2+x,1/2+z
loop_
_atom_site_type_symbol
_atom_site_label
_atom_site_fract_x
_atom_site_fract_y
_atom_site_fract_z
Si Si1 0.698353 0.416602 0.419354
Si Si2 0.731822 0.847366 0.000000
Si Si3 0.083334 0.298403 0.158602
Si Si4 0.793859 0.579044 0.000000
Si Si5 0.302006 0.917750 0.749968
Si Si6 0.416413 0.799342 0.158453
Si Si7 0.580811 0.302493 0.082032
O O1 0.688441 0.500000 0.422837
O O2 0.625692 0.374309 0.417659
O O3 0.740543 0.387296 0.459172
O O4 0.743541 0.401468 0.377893
O O5 0.770524 0.770524 0.000000
O O6 0.647767 0.842256 0.000000
O O7 0.097333 0.267526 0.205171
O O8 0.132526 0.366841 0.153876
O O9 0.000000 0.315900 0.156173
O O10 0.745707 0.584436 0.041007
O O11 0.826103 0.500000 0.000000
O O12 0.373029 0.873029 0.750000
O O13 0.268041 0.902959 0.704933
O O14 0.317927 0.000000 0.749972
O O15 0.500000 0.816327 0.155436
O O16 0.400155 0.744820 0.121979
O O17 0.500000 0.325578 0.086916
O O18 0.633114 0.366887 0.078038
#
# Coordination Sequence:
#
# PCOD9571474 Si02
#       7
#    32  16  32  16  32  32  32
#     4  10  21  36  54  75  97 124 159 200 246 291
#     4  10  19  33  55  78 101 129 159 194 236 282
#     4   9  17  29  46  70  99 128 159 194 234 285
#     4  10  20  33  51  76 104 132 161 190 223 271
#     4   8  14  25  41  63  93 126 158 194 234 277
#     4   9  17  29  46  69  97 129 163 197 235 281
#     4  10  20  33  49  69  93 123 161 203 243 281
#
# _framework density 16.508683999999999
#
# number of rings (size 3 to 8) (size 9 to 14) (size 15 to 20)
#    0.000    2.667    0.000    2.000    0.000    2.833 
#    0.000    4.167    0.000    8.000    0.000    0.000 
#    0.000    6.667    0.000    0.000    0.000    0.000 
#
# Total GULP energy -534419.935665 kJ/mol
# GULP energy per Si atom -5566.874330 kJ/mol
# Density = 1.647111 g / cm^3
# Si number density = 16.508684 Si / 1000 Ang^3
#
#
#
# Elastic Constant Matrix: (Units=GPa)
#
#
# Indices 1 2 3 4 5 6 
#
# 1 60.8848 43.4265 35.7802 0.0000 0.0000 0.0000
# 2 43.4265 60.8848 35.7802 0.0000 0.0000 0.0000
# 3 35.7802 35.7802 138.2692 0.0000 0.0000 0.0000
# 4 0.0000 0.0000 0.0000 11.1323 0.0000 0.0000
# 5 0.0000 0.0000 0.0000 0.0000 11.1323 0.0000
# 6 0.0000 0.0000 0.0000 0.0000 0.0000 21.9073
#
#
#
# Elastic Compliance Matrix: (Units=1/GPa)
#
#
# Indices 1 2 3 4 5 6 
#
# 1 0.034468 -0.022812 -0.003016 0.000000 0.000000 0.000000
# 2 -0.022812 0.034468 -0.003016 0.000000 0.000000 0.000000
# 3 -0.003016 -0.003016 0.008793 0.000000 0.000000 0.000000
# 4 0.000000 0.000000 0.000000 0.089829 0.000000 0.000000
# 5 0.000000 0.000000 0.000000 0.000000 0.089829 0.000000
# 6 0.000000 0.000000 0.000000 0.000000 0.000000 0.045647
#
#
# Mechanical properties :
#
#
# Convention : Reuss Voigt Hill
#
# Bulk Modulus (GPa) = 49.89967 54.44585 52.17276
# Shear Modulus (GPa) = 13.60910 18.50450 16.05680
#
# Velocity S-wave (km/s) = 2.87428 3.35161 3.12208
# Velocity P-wave (km/s) = 6.42707 6.93033 6.68344
#
# Compressibility (1/GPa) = 0.02004021
#
# Stress axis : x y z
#
# Youngs Moduli (GPa) = 29.01271 29.01271 113.72298
#
# Poissons Ratio (x) = 0.66183 0.34301
# Poissons Ratio (y) = 0.66183 0.34301
# Poissons Ratio (z) = 0.08751 0.08751
#
# Static dielectric constant tensor:
#      x y z
#    x 1.527210 0.000000 0.000000 
#    y 0.000000 1.527210 0.000000 
#    z 0.000000 0.000000 1.598100 
# 
# From -- ./inp_files/14346.got.cif
#   From: 2010.05.17/outbox.cif.g08.bks.cpg/sg139_8_cif.got.tgz:14346.got - 2010.05.20 13:14:44.
