data_PCOD9571242
_publ_section_title
;
Structure prediction by ZEFSAII (Michael W. Deem and Ramdas Pophale) SiO2 
 PCOD9571242
Probable space group: I 4/M M M
;
_chemical_formula_sum "Si O2"
_cell_formula_units_Z 160
_cell_length_a 18.310241
_cell_length_b 18.310241
_cell_length_c 28.165726
_cell_angle_alpha 90.000000
_cell_angle_beta 90.000000
_cell_angle_gamma 90.000000
_cell_volume 9442.980028
_symmetry_space_group_name_H-M "I 4/M M M"
_symmetry_group_IT_number 139
_symmetry_cell_setting 'tetragonal'
loop_
_space_group_symop_operation_xyz
x,y,z
-y,x,z
-x,-y,z
y,-x,z
x,-y,-z
-x,y,-z
y,x,-z
-y,-x,-z
-x,-y,-z
y,-x,-z
x,y,-z
-y,x,-z
-x,y,z
x,-y,z
-y,-x,z
y,x,z
1/2+x,1/2+y,1/2+z
1/2-y,1/2+x,1/2+z
1/2-x,1/2-y,1/2+z
1/2+y,1/2-x,1/2+z
1/2+x,1/2-y,1/2-z
1/2-x,1/2+y,1/2-z
1/2+y,1/2+x,1/2-z
1/2-y,1/2-x,1/2-z
1/2-x,1/2-y,1/2-z
1/2+y,1/2-x,1/2-z
1/2+x,1/2+y,1/2-z
1/2-y,1/2+x,1/2-z
1/2-x,1/2+y,1/2+z
1/2+x,1/2-y,1/2+z
1/2-y,1/2-x,1/2+z
1/2+y,1/2+x,1/2+z
loop_
_atom_site_type_symbol
_atom_site_label
_atom_site_fract_x
_atom_site_fract_y
_atom_site_fract_z
Si Si1 0.584513 0.796485 0.605151
Si Si2 0.236768 0.358049 0.783907
Si Si3 0.687764 0.312237 0.445924
Si Si4 0.200236 0.919339 0.192769
Si Si5 0.813063 0.186938 0.555212
Si Si6 0.206407 0.413868 0.888632
O O1 0.500000 0.808425 0.592995
O O2 0.618973 0.726407 0.578624
O O3 0.589248 0.772169 0.660372
O O4 0.635506 0.866381 0.596130
O O5 0.287577 0.287577 0.795859
O O6 0.172587 0.327413 0.750000
O O7 0.281242 0.409519 0.748015
O O8 0.216217 0.396692 0.832603
O O9 0.670426 0.329575 0.500000
O O10 0.750405 0.249596 0.444365
O O11 0.143836 0.856165 0.179985
O O12 0.170800 0.000000 0.183228
O O13 0.829604 0.170397 0.500000
O O14 0.775779 0.119804 0.583132
O O15 0.198617 0.500000 0.896624
#
# Coordination Sequence:
#
# PCOD9571242 Si02
#       6
#    32  32  16  32  16  32
#     4  10  20  34  52  78 112 145 181 223 269 320
#     4  10  18  30  53  79 107 143 182 229 270 318
#     4   9  18  34  57  78 100 135 181 228 273 318
#     4  10  19  31  50  75 105 142 179 218 264 317
#     4   9  20  38  58  83 107 132 181 242 291 332
#     4  11  21  35  58  83 111 147 188 228 277 340
#
# _framework density 16.943802999999999
#
# number of rings (size 3 to 8) (size 9 to 14) (size 15 to 20)
#    0.000    2.000    4.000    0.600    0.000    1.400 
#    0.000    0.000    0.000    0.600    0.000    7.000 
#    0.000    0.000    0.000    0.000    0.000    0.000 
#
# Total GULP energy -445716.087089 kJ/mol
# GULP energy per Si atom -5571.451089 kJ/mol
# Density = 1.690524 g / cm^3
# Si number density = 16.943803 Si / 1000 Ang^3
#
#
#
# Elastic Constant Matrix: (Units=GPa)
#
#
# Indices 1 2 3 4 5 6 
#
# 1 104.2869 57.7284 30.9033 0.0000 0.0000 0.0000
# 2 57.7284 104.2867 30.9036 0.0000 0.0000 0.0000
# 3 30.9033 30.9036 82.6570 0.0000 0.0000 0.0000
# 4 0.0000 0.0000 0.0000 12.1189 0.0000 0.0000
# 5 0.0000 0.0000 0.0000 0.0000 12.1192 0.0000
# 6 0.0000 0.0000 0.0000 0.0000 0.0000 11.9825
#
#
#
# Elastic Compliance Matrix: (Units=1/GPa)
#
#
# Indices 1 2 3 4 5 6 
#
# 1 0.014339 -0.007140 -0.002691 0.000000 0.000000 0.000000
# 2 -0.007140 0.014339 -0.002692 0.000000 0.000000 0.000000
# 3 -0.002691 -0.002692 0.014111 0.000000 0.000000 0.000000
# 4 0.000000 0.000000 0.000000 0.082516 0.000000 0.000000
# 5 0.000000 0.000000 0.000000 0.000000 0.082514 0.000000
# 6 0.000000 0.000000 0.000000 0.000000 0.000000 0.083455
#
#
# Mechanical properties :
#
#
# Convention : Reuss Voigt Hill
#
# Bulk Modulus (GPa) = 56.36120 58.92234 57.64177
# Shear Modulus (GPa) = 15.51673 18.69046 17.10360
#
# Velocity S-wave (km/s) = 3.02946 3.32488 3.18060
# Velocity P-wave (km/s) = 6.75075 7.04204 6.89794
#
# Compressibility (1/GPa) = 0.01774270
#
# Stress axis : x y z
#
# Youngs Moduli (GPa) = 69.74135 69.74098 70.86771
#
# Poissons Ratio (x) = 0.49793 0.19074
# Poissons Ratio (y) = 0.49793 0.19075
# Poissons Ratio (z) = 0.18771 0.18772
#
# Static dielectric constant tensor:
#      x y z
#    x 1.574470 0.000000 0.000000 
#    y 0.000000 1.574470 0.000000 
#    z 0.000000 0.000000 1.591980 
# 
# From -- ./inp_files/12969.got.cif
#   From: 2010.05.17/outbox.cif.g08.bks.cpg/sg139_7_cif.got.tgz:12969.got - 2010.05.20 13:14:44.
