data_PCOD9571092
_publ_section_title
;
Structure prediction by ZEFSAII (Michael W. Deem and Ramdas Pophale) SiO2 
 PCOD9571092
Probable space group: P 42/N C M
;
_chemical_formula_sum "Si O2"
_cell_formula_units_Z 88
_cell_length_a 10.681440
_cell_length_b 10.681440
_cell_length_c 32.666975
_cell_angle_alpha 90.000000
_cell_angle_beta 90.000000
_cell_angle_gamma 90.000000
_cell_volume 3727.078421
_symmetry_space_group_name_H-M "P 42/N C M"
_symmetry_group_IT_number 138
_space_group.IT_coordinate_system_code '2'
_symmetry_cell_setting 'tetragonal'
loop_
_space_group_symop_operation_xyz
x,y,z
1/2-y,x,1/2+z
1/2-x,1/2-y,z
y,1/2-x,1/2+z
1/2+x,-y,1/2-z
-x,1/2+y,1/2-z
1/2+y,1/2+x,-z
-y,-x,-z
-x,-y,-z
1/2+y,-x,1/2-z
1/2+x,1/2+y,-z
-y,1/2+x,1/2-z
1/2-x,y,1/2+z
x,1/2-y,1/2+z
1/2-y,1/2-x,z
y,x,z
loop_
_atom_site_type_symbol
_atom_site_label
_atom_site_fract_x
_atom_site_fract_y
_atom_site_fract_z
Si Si1 0.185605 0.514256 0.840252
Si Si2 0.600158 0.600158 0.814054
Si Si3 0.641841 0.641841 0.521736
Si Si4 0.583134 0.263504 0.122295
Si Si5 0.990360 0.308557 0.422837
Si Si6 0.357222 0.142779 0.073633
Si Si7 0.248228 0.958549 0.253039
O O1 0.157960 0.658791 0.851715
O O2 0.253695 0.460064 0.879875
O O3 0.264012 0.493665 0.799156
O O4 0.055041 0.444960 0.834136
O O5 0.646326 0.489714 0.846218
O O6 0.556145 0.711256 0.781418
O O7 0.750000 0.750000 0.525765
O O8 0.701224 0.521522 0.544281
O O9 0.620144 0.620144 0.474105
O O10 0.653419 0.349893 0.088904
O O11 0.479208 0.189393 0.096839
O O12 0.067673 0.432328 0.434500
O O13 0.250000 0.250000 0.077987
O O14 0.367352 0.873134 0.243594
#
# Coordination Sequence:
#
# PCOD9571092 Si02
#       7
#    16   8   8  16  16   8  16
#     4  12  24  42  68  97 135 180 225 273 336 392
#     4  12  22  41  62  90 134 175 223 279 317 399
#     4   9  22  42  69 102 136 168 223 279 339 404
#     4  12  24  41  67 100 133 177 226 273 338 400
#     4  11  23  44  69  99 132 174 220 279 334 408
#     4  11  22  42  69 100 137 181 218 273 336 414
#     4  11  24  39  61  92 131 175 228 282 327 383
#
# _framework density 23.610989
#
# number of rings (size 3 to 8) (size 9 to 14) (size 15 to 20)
#    0.000    0.727    6.364    1.636    2.545    0.727 
#    0.000    5.455    0.000    2.182    0.000    0.000 
#    0.000    0.000    0.000    0.000    0.000    0.000 
#
# Total GULP energy -490192.966184 kJ/mol
# GULP energy per Si atom -5570.374616 kJ/mol
# Density = 2.355725 g / cm^3
# Si number density = 23.610989 Si / 1000 Ang^3
#
#
#
# Elastic Constant Matrix: (Units=GPa)
#
#
# Indices 1 2 3 4 5 6 
#
# 1 64.0408 40.0135 9.9958 0.0000 0.0000 0.0000
# 2 40.0135 64.0408 9.9958 0.0000 0.0000 0.0000
# 3 9.9958 9.9958 104.7591 0.0000 0.0000 0.0000
# 4 0.0000 0.0000 0.0000 13.9498 0.0000 0.0000
# 5 0.0000 0.0000 0.0000 0.0000 13.9498 0.0000
# 6 0.0000 0.0000 0.0000 0.0000 0.0000 58.7834
#
#
#
# Elastic Compliance Matrix: (Units=1/GPa)
#
#
# Indices 1 2 3 4 5 6 
#
# 1 0.025705 -0.015915 -0.000934 0.000000 0.000000 0.000000
# 2 -0.015915 0.025705 -0.000934 0.000000 0.000000 0.000000
# 3 -0.000934 -0.000934 0.009724 0.000000 0.000000 0.000000
# 4 0.000000 0.000000 0.000000 0.071685 0.000000 0.000000
# 5 0.000000 0.000000 0.000000 0.000000 0.071685 0.000000
# 6 0.000000 0.000000 0.000000 0.000000 0.000000 0.017012
#
#
# Mechanical properties :
#
#
# Convention : Reuss Voigt Hill
#
# Bulk Modulus (GPa) = 39.11265 39.20565 39.15915
# Shear Modulus (GPa) = 18.82503 28.85898 23.84201
#
# Velocity S-wave (km/s) = 2.82671 3.49989 3.18116
# Velocity P-wave (km/s) = 5.22065 5.74223 5.48764
#
# Compressibility (1/GPa) = 0.02556718
#
# Stress axis : x y z
#
# Youngs Moduli (GPa) = 38.90362 38.90362 102.83860
#
# Poissons Ratio (x) = 0.61914 0.09606
# Poissons Ratio (y) = 0.61914 0.09606
# Poissons Ratio (z) = 0.03634 0.03634
#
# Static dielectric constant tensor:
#      x y z
#    x 1.949220 0.000000 0.000000 
#    y 0.000000 1.949220 0.000000 
#    z 0.000000 0.000000 1.866730 
# 
# From -- ./inp_files/8118.got.cif
#   From: 2010.05.17/outbox.cif.g08.bks.cpg/sg138_5_cif.got.tgz:8118.got - 2010.05.20 13:08:53.
