data_PCOD9571393
_publ_section_title
;
Structure prediction by ZEFSAII (Michael W. Deem and Ramdas Pophale) SiO2 
 PCOD9571393
Probable space group: I 4/M M M
;
_chemical_formula_sum "Si O2"
_cell_formula_units_Z 240
_cell_length_a 30.822911
_cell_length_b 30.822911
_cell_length_c 14.792713
_cell_angle_alpha 90.000000
_cell_angle_beta 90.000000
_cell_angle_gamma 90.000000
_cell_volume 14053.844241
_symmetry_space_group_name_H-M "I 4/M M M"
_symmetry_group_IT_number 139
_symmetry_cell_setting 'tetragonal'
loop_
_space_group_symop_operation_xyz
x,y,z
-y,x,z
-x,-y,z
y,-x,z
x,-y,-z
-x,y,-z
y,x,-z
-y,-x,-z
-x,-y,-z
y,-x,-z
x,y,-z
-y,x,-z
-x,y,z
x,-y,z
-y,-x,z
y,x,z
1/2+x,1/2+y,1/2+z
1/2-y,1/2+x,1/2+z
1/2-x,1/2-y,1/2+z
1/2+y,1/2-x,1/2+z
1/2+x,1/2-y,1/2-z
1/2-x,1/2+y,1/2-z
1/2+y,1/2+x,1/2-z
1/2-y,1/2-x,1/2-z
1/2-x,1/2-y,1/2-z
1/2+y,1/2-x,1/2-z
1/2+x,1/2+y,1/2-z
1/2-y,1/2+x,1/2-z
1/2-x,1/2+y,1/2+z
1/2+x,1/2-y,1/2+z
1/2-y,1/2-x,1/2+z
1/2+y,1/2+x,1/2+z
loop_
_atom_site_type_symbol
_atom_site_label
_atom_site_fract_x
_atom_site_fract_y
_atom_site_fract_z
Si Si1 0.207640 0.136406 0.392560
Si Si2 0.548172 0.289871 0.203059
Si Si3 0.888538 0.597742 0.891347
Si Si4 0.793378 0.723064 0.354738
Si Si5 0.800457 0.548918 0.896545
Si Si6 0.877218 0.306499 0.894706
Si Si7 0.738070 0.450637 0.605409
Si Si8 0.051322 0.448679 0.750000
O O1 0.207650 0.130370 0.500000
O O2 0.172346 0.172346 0.367362
O O3 0.194656 0.091772 0.344734
O O4 0.253394 0.159993 0.368003
O O5 0.500000 0.305095 0.172730
O O6 0.550022 0.239011 0.173160
O O7 0.550292 0.295474 0.311351
O O8 0.839659 0.580749 0.877878
O O9 0.888458 0.646875 0.854148
O O10 0.922592 0.569392 0.836236
O O11 0.896640 0.595574 0.000000
O O12 0.756002 0.756002 0.392528
O O13 0.782746 0.717255 0.250000
O O14 0.794511 0.673522 0.388085
O O15 0.818355 0.500000 0.895269
O O16 0.784134 0.556887 0.000000
O O17 0.911652 0.270174 0.868014
O O18 0.885921 0.312476 0.000000
O O19 0.724133 0.444471 0.500000
O O20 0.757044 0.500000 0.609028
O O21 0.058834 0.500000 0.739899
#
# Coordination Sequence:
#
# PCOD9571393 Si02
#       8
#    32  32  32  32  32  32  32  16
#     4  10  20  33  49  72 107 144 171 205 256 305
#     4  10  19  31  52  76  98 130 168 208 247 291
#     4  10  22  37  54  74  94 119 152 197 247 297
#     4  10  20  32  49  74 104 139 174 206 245 297
#     4   9  17  29  46  69  93 115 145 189 239 286
#     4  10  20  32  49  71  93 125 165 201 243 296
#     4   9  19  34  49  69  98 128 162 209 262 304
#     4  11  26  42  56  74  91 116 154 194 253 332
#
# _framework density 17.077178
#
# number of rings (size 3 to 8) (size 9 to 14) (size 15 to 20)
#    0.000    2.200    0.000    2.800    2.800    4.267 
#    0.000    2.000    0.000    1.200    0.000    0.000 
#    0.000    0.267    0.000    1.467    0.000    0.000 
#
# Total GULP energy -668196.449169 kJ/mol
# GULP energy per Si atom -5568.303743 kJ/mol
# Density = 1.703831 g / cm^3
# Si number density = 17.077178 Si / 1000 Ang^3
#
#
#
# Elastic Constant Matrix: (Units=GPa)
#
#
# Indices 1 2 3 4 5 6 
#
# 1 83.0364 -7.1407 2.0433 0.0000 0.0000 0.0000
# 2 -7.1407 83.0356 2.0349 0.0000 0.0000 0.0000
# 3 2.0433 2.0349 51.8780 0.0000 0.0000 0.0000
# 4 0.0000 0.0000 0.0000 23.5177 0.0000 0.0000
# 5 0.0000 0.0000 0.0000 0.0000 23.5199 0.0000
# 6 0.0000 0.0000 0.0000 0.0000 0.0000 14.8764
#
#
#
# Elastic Compliance Matrix: (Units=1/GPa)
#
#
# Indices 1 2 3 4 5 6 
#
# 1 0.012147 0.001057 -0.000520 0.000000 0.000000 0.000000
# 2 0.001057 0.012147 -0.000518 0.000000 0.000000 0.000000
# 3 -0.000520 -0.000518 0.019317 0.000000 0.000000 0.000000
# 4 0.000000 0.000000 0.000000 0.042521 0.000000 0.000000
# 5 0.000000 0.000000 0.000000 0.000000 0.042517 0.000000
# 6 0.000000 0.000000 0.000000 0.000000 0.000000 0.067221
#
#
# Mechanical properties :
#
#
# Convention : Reuss Voigt Hill
#
# Bulk Modulus (GPa) = 22.91020 23.53612 23.22316
# Shear Modulus (GPa) = 23.76651 27.11695 25.44173
#
# Velocity S-wave (km/s) = 3.73461 3.98918 3.86399
# Velocity P-wave (km/s) = 5.66050 5.91863 5.79100
#
# Compressibility (1/GPa) = 0.04364868
#
# Stress axis : x y z
#
# Youngs Moduli (GPa) = 82.32741 82.32730 51.76840
#
# Poissons Ratio (x) = -0.08704 0.02691
# Poissons Ratio (y) = -0.08704 0.02682
# Poissons Ratio (z) = 0.04280 0.04265
#
# Static dielectric constant tensor:
#      x y z
#    x 1.616320 0.000000 0.000000 
#    y 0.000000 1.616310 0.000000 
#    z 0.000000 0.000000 1.634990 
# 
# From -- ./inp_files/6794.got.cif
#   From: 2010.05.17/outbox.cif.g08.bks.cpg/sg139_4_cif.got.tgz:6794.got - 2010.05.20 13:14:44.
