data_PCOD9571526
_publ_section_title
;
Structure prediction by ZEFSAII (Michael W. Deem and Ramdas Pophale) SiO2 
 PCOD9571526
Probable space group: I 4/M M M
;
_chemical_formula_sum "Si O2"
_cell_formula_units_Z 136
_cell_length_a 25.106951
_cell_length_b 25.106951
_cell_length_c 10.602317
_cell_angle_alpha 90.000000
_cell_angle_beta 90.000000
_cell_angle_gamma 90.000000
_cell_volume 6683.265820
_symmetry_space_group_name_H-M "I 4/M M M"
_symmetry_group_IT_number 139
_symmetry_cell_setting 'tetragonal'
loop_
_space_group_symop_operation_xyz
x,y,z
-y,x,z
-x,-y,z
y,-x,z
x,-y,-z
-x,y,-z
y,x,-z
-y,-x,-z
-x,-y,-z
y,-x,-z
x,y,-z
-y,x,-z
-x,y,z
x,-y,z
-y,-x,z
y,x,z
1/2+x,1/2+y,1/2+z
1/2-y,1/2+x,1/2+z
1/2-x,1/2-y,1/2+z
1/2+y,1/2-x,1/2+z
1/2+x,1/2-y,1/2-z
1/2-x,1/2+y,1/2-z
1/2+y,1/2+x,1/2-z
1/2-y,1/2-x,1/2-z
1/2-x,1/2-y,1/2-z
1/2+y,1/2-x,1/2-z
1/2+x,1/2+y,1/2-z
1/2-y,1/2+x,1/2-z
1/2-x,1/2+y,1/2+z
1/2+x,1/2-y,1/2+z
1/2-y,1/2-x,1/2+z
1/2+y,1/2+x,1/2+z
loop_
_atom_site_type_symbol
_atom_site_label
_atom_site_fract_x
_atom_site_fract_y
_atom_site_fract_z
Si Si1 0.000000 0.792242 0.769949
Si Si2 0.113895 0.386106 0.750000
Si Si3 0.230206 0.313509 0.500000
Si Si4 0.109283 0.258982 0.224743
Si Si5 0.936731 0.563554 0.000000
Si Si6 0.617372 0.229975 0.000000
Si Si7 0.500000 0.587022 0.347971
Si Si8 0.000000 0.738230 0.500000
O O1 0.945664 0.766650 0.822228
O O2 0.000000 0.774296 0.624016
O O3 0.000000 0.855066 0.788233
O O4 0.103801 0.322740 0.758847
O O5 0.087515 0.410711 0.625679
O O6 0.254860 0.254860 0.500000
O O7 0.249264 0.344574 0.376272
O O8 0.166193 0.311065 0.500000
O O9 0.122107 0.239263 0.366943
O O10 0.930075 0.500000 0.000000
O O11 0.000000 0.575418 0.000000
O O12 0.556424 0.207969 0.000000
O O13 0.448416 0.551585 0.314397
O O14 0.500000 0.592857 0.500000
#
# Coordination Sequence:
#
# PCOD9571526 Si02
#       8
#    16  16  16  32  16  16  16   8
#     4  10  23  40  67  99 129 169 223 273 326 401
#     4  12  22  43  65  88 130 180 214 278 344 388
#     4  12  25  42  64  93 133 177 222 276 334 394
#     4  11  24  41  62  95 129 170 223 273 328 398
#     4  11  26  42  62  94 125 165 225 281 334 395
#     4  10  19  44  63  87 126 166 218 269 318 399
#     4   9  20  42  70  98 130 167 206 258 334 410
#     4   8  20  40  66  91 126 165 212 270 318 386
#
# _framework density 20.349332
#
# number of rings (size 3 to 8) (size 9 to 14) (size 15 to 20)
#    0.000    1.412    2.353    2.471    4.941    3.765 
#    2.118    4.118    0.000    0.706    0.000    0.000 
#    0.000    0.000    0.000    0.000    0.000    0.000 
#
# Total GULP energy -379829.538543 kJ/mol
# GULP energy per Si atom -5585.728508 kJ/mol
# Density = 2.030302 g / cm^3
# Si number density = 20.349332 Si / 1000 Ang^3
#
#
#
# Elastic Constant Matrix: (Units=GPa)
#
#
# Indices 1 2 3 4 5 6 
#
# 1 109.7079 77.7154 30.9593 0.0000 0.0000 0.0000
# 2 77.7154 109.7068 30.9590 0.0000 0.0000 0.0000
# 3 30.9593 30.9590 117.5890 0.0000 0.0000 0.0000
# 4 0.0000 0.0000 0.0000 -2.6984 0.0000 0.0000
# 5 0.0000 0.0000 0.0000 0.0000 -2.6671 0.0000
# 6 0.0000 0.0000 0.0000 0.0000 0.0000 19.7663
#
#
#
# Elastic Compliance Matrix: (Units=1/GPa)
#
#
# Indices 1 2 3 4 5 6 
#
# 1 0.018551 -0.012707 -0.001539 0.000000 0.000000 0.000000
# 2 -0.012707 0.018551 -0.001539 0.000000 0.000000 0.000000
# 3 -0.001539 -0.001539 0.009314 0.000000 0.000000 0.000000
# 4 0.000000 0.000000 0.000000 -0.370587 0.000000 0.000000
# 5 0.000000 0.000000 0.000000 0.000000 -0.374933 0.000000
# 6 0.000000 0.000000 0.000000 0.000000 0.000000 0.050591
#
#
# Mechanical properties :
#
#
# Convention : Reuss Voigt Hill
#
# Bulk Modulus (GPa) = 67.35051 68.47457 67.91254
# Shear Modulus (GPa) = -8.17000 16.03815 3.93408
#
# Velocity S-wave (km/s) = -2.00589 2.81043 1.39193
# Velocity P-wave (km/s) = 5.27297 6.65236 6.00242
#
# Compressibility (1/GPa) = 0.01484770
#
# Stress axis : x y z
#
# Youngs Moduli (GPa) = 53.90621 53.90572 107.36116
#
# Poissons Ratio (x) = 0.68498 0.16519
# Poissons Ratio (y) = 0.68499 0.16518
# Poissons Ratio (z) = 0.08294 0.08294
#
# Static dielectric constant tensor:
#      x y z
#    x 1.704280 0.000000 0.000000 
#    y 0.000000 1.704290 0.000000 
#    z 0.000000 0.000000 1.755360 
# 
# From -- ./inp_files/3624.got.cif
#   From: 2010.05.17/outbox.cif.g08.bks.cpg/sg139_2_cif.got.tgz:3624.got - 2010.05.20 13:14:44.
