data_PCOD9571828
_publ_section_title
;
Structure prediction by ZEFSAII (Michael W. Deem and Ramdas Pophale) SiO2 
 PCOD9571828
Probable space group: I 4/M M M
;
_chemical_formula_sum "Si O2"
_cell_formula_units_Z 160
_cell_length_a 22.207214
_cell_length_b 22.207214
_cell_length_c 17.505433
_cell_angle_alpha 90.000000
_cell_angle_beta 90.000000
_cell_angle_gamma 90.000000
_cell_volume 8632.985529
_symmetry_space_group_name_H-M "I 4/M M M"
_symmetry_group_IT_number 139
_symmetry_cell_setting 'tetragonal'
loop_
_space_group_symop_operation_xyz
x,y,z
-y,x,z
-x,-y,z
y,-x,z
x,-y,-z
-x,y,-z
y,x,-z
-y,-x,-z
-x,-y,-z
y,-x,-z
x,y,-z
-y,x,-z
-x,y,z
x,-y,z
-y,-x,z
y,x,z
1/2+x,1/2+y,1/2+z
1/2-y,1/2+x,1/2+z
1/2-x,1/2-y,1/2+z
1/2+y,1/2-x,1/2+z
1/2+x,1/2-y,1/2-z
1/2-x,1/2+y,1/2-z
1/2+y,1/2+x,1/2-z
1/2-y,1/2-x,1/2-z
1/2-x,1/2-y,1/2-z
1/2+y,1/2-x,1/2-z
1/2+x,1/2+y,1/2-z
1/2-y,1/2+x,1/2-z
1/2-x,1/2+y,1/2+z
1/2+x,1/2-y,1/2+z
1/2-y,1/2-x,1/2+z
1/2+y,1/2+x,1/2+z
loop_
_atom_site_type_symbol
_atom_site_label
_atom_site_fract_x
_atom_site_fract_y
_atom_site_fract_z
Si Si1 0.142037 0.388137 0.335794
Si Si2 0.255905 0.158344 0.591554
Si Si3 0.000000 0.429516 0.908399
Si Si4 0.071651 0.165756 0.321940
Si Si5 0.164484 0.927955 0.000000
Si Si6 0.071874 0.220882 0.841479
O O1 0.118014 0.381987 0.250000
O O2 0.146160 0.322113 0.374461
O O3 0.103309 0.439457 0.378450
O O4 0.210507 0.409999 0.332190
O O5 0.259251 0.157216 0.500000
O O6 0.221331 0.221331 0.613565
O O7 0.212469 0.105796 0.623056
O O8 0.000000 0.500000 0.885726
O O9 0.000000 0.426033 0.000000
O O10 0.100545 0.100545 0.335997
O O11 0.088006 0.185140 0.235092
O O12 0.000000 0.167677 0.330920
O O13 0.196183 0.905226 0.922616
O O14 0.097291 0.902710 0.000000
O O15 0.165585 0.000000 0.000000
O O16 0.000000 0.217523 0.846255
#
# Coordination Sequence:
#
# PCOD9571828 Si02
#       6
#    32  32  16  32  16  32
#     4  12  24  40  68  91 125 167 206 261 314 373
#     4  10  23  41  61  91 126 163 207 259 318 376
#     4  11  28  46  66  96 130 168 214 266 315 380
#     4  10  21  39  62  88 122 158 202 254 309 372
#     4  10  22  37  60  90 124 166 208 256 309 371
#     4  10  21  38  58  87 122 164 204 249 306 367
#
# _framework density 18.533563999999998
#
# number of rings (size 3 to 8) (size 9 to 14) (size 15 to 20)
#    0.000    1.500    3.000    1.200    4.200    3.500 
#    0.000    0.000    0.000    3.600    0.000    2.800 
#    0.000    0.000    0.000    0.000    0.000    0.000 
#
# Total GULP energy -446359.708005 kJ/mol
# GULP energy per Si atom -5579.496350 kJ/mol
# Density = 1.849138 g / cm^3
# Si number density = 18.533564 Si / 1000 Ang^3
#
#
#
# Elastic Constant Matrix: (Units=GPa)
#
#
# Indices 1 2 3 4 5 6 
#
# 1 61.2693 98.1515 37.9117 0.0000 0.0000 0.0000
# 2 98.1515 61.2716 37.9148 0.0000 0.0000 0.0000
# 3 37.9117 37.9148 88.2735 0.0000 0.0000 0.0000
# 4 0.0000 0.0000 0.0000 24.8102 0.0000 0.0000
# 5 0.0000 0.0000 0.0000 0.0000 24.8123 0.0000
# 6 0.0000 0.0000 0.0000 0.0000 0.0000 24.5277
#
#
#
# Elastic Compliance Matrix: (Units=1/GPa)
#
#
# Indices 1 2 3 4 5 6 
#
# 1 -0.009616 0.017499 -0.003386 0.000000 0.000000 0.000000
# 2 0.017499 -0.009616 -0.003385 0.000000 0.000000 0.000000
# 3 -0.003386 -0.003385 0.014237 0.000000 0.000000 0.000000
# 4 0.000000 0.000000 0.000000 0.040306 0.000000 0.000000
# 5 0.000000 0.000000 0.000000 0.000000 0.040303 0.000000
# 6 0.000000 0.000000 0.000000 0.000000 0.000000 0.040770
#
#
# Mechanical properties :
#
#
# Convention : Reuss Voigt Hill
#
# Bulk Modulus (GPa) = 60.75386 62.08561 61.41973
# Shear Modulus (GPa) = 49.79238 17.28578 33.53908
#
# Velocity S-wave (km/s) = 5.18887 3.05729 4.25860
# Velocity P-wave (km/s) = 8.29161 6.78486 7.57579
#
# Compressibility (1/GPa) = 0.01645986
#
# Stress axis : x y z
#
# Youngs Moduli (GPa) = -103.99854 -103.99773 70.24069
#
# Poissons Ratio (x) = 1.81981 0.23785
# Poissons Ratio (y) = 1.81983 0.23778
# Poissons Ratio (z) = -0.35216 -0.35206
#
# Static dielectric constant tensor:
#      x y z
#    x 1.629080 0.000000 0.000000 
#    y 0.000000 1.629080 0.000000 
#    z 0.000000 0.000000 1.651610 
# 
# From -- ./inp_files/8441.got.cif
#   From: 2010.05.17/outbox.cif.g08.bks.cpg/sg139_5_cif.got.tgz:8441.got - 2010.05.20 13:14:44.
