data_PCOD9571117
_publ_section_title
;
Structure prediction by ZEFSAII (Michael W. Deem and Ramdas Pophale) SiO2 
 PCOD9571117
Probable space group: P 42/N C M
;
_chemical_formula_sum "Si O2"
_cell_formula_units_Z 36
_cell_length_a 12.938859
_cell_length_b 12.938859
_cell_length_c 9.581682
_cell_angle_alpha 90.000000
_cell_angle_beta 90.000000
_cell_angle_gamma 90.000000
_cell_volume 1604.108402
_symmetry_space_group_name_H-M "P 42/N C M"
_symmetry_group_IT_number 138
_space_group.IT_coordinate_system_code '2'
_symmetry_cell_setting 'tetragonal'
loop_
_space_group_symop_operation_xyz
x,y,z
1/2-y,x,1/2+z
1/2-x,1/2-y,z
y,1/2-x,1/2+z
1/2+x,-y,1/2-z
-x,1/2+y,1/2-z
1/2+y,1/2+x,-z
-y,-x,-z
-x,-y,-z
1/2+y,-x,1/2-z
1/2+x,1/2+y,-z
-y,1/2+x,1/2-z
1/2-x,y,1/2+z
x,1/2-y,1/2+z
1/2-y,1/2-x,z
y,x,z
loop_
_atom_site_type_symbol
_atom_site_label
_atom_site_fract_x
_atom_site_fract_y
_atom_site_fract_z
Si Si1 0.251924 0.417810 0.816510
Si Si2 0.553439 0.200896 0.060279
Si Si3 0.750000 0.250000 0.250000
O O1 0.140491 0.359510 0.811046
O O2 0.332351 0.332351 0.866488
O O3 0.288443 0.459102 0.666852
O O4 0.256668 0.514007 0.921354
O O5 0.651283 0.243590 0.147066
O O6 0.590667 0.090667 0.000000
#
# Coordination Sequence:
#
# PCOD9571117 Si02
#       3
#    16  16   4
#     4  11  26  48  73 106 146 187 240 303 360 428
#     4  12  25  46  74 101 142 191 236 292 364 424
#     4  12  26  48  66 104 150 184 234 312 350 420
#
# _framework density 22.442374999999998
#
# number of rings (size 3 to 8) (size 9 to 14) (size 15 to 20)
#    0.000    0.444    4.444    3.333    0.000    7.111 
#    0.000    2.222    0.000    0.000    0.000    0.000 
#    0.000    0.000    0.000    0.000    0.000    0.000 
#
# Total GULP energy -200995.779745 kJ/mol
# GULP energy per Si atom -5583.216104 kJ/mol
# Density = 2.239130 g / cm^3
# Si number density = 22.442375 Si / 1000 Ang^3
#
#
#
# Elastic Constant Matrix: (Units=GPa)
#
#
# Indices 1 2 3 4 5 6 
#
# 1 89.1250 51.1921 40.0548 0.0000 0.0000 0.0000
# 2 51.1921 89.1250 40.0548 0.0000 0.0000 0.0000
# 3 40.0548 40.0548 143.4888 0.0000 0.0000 0.0000
# 4 0.0000 0.0000 0.0000 29.8216 0.0000 0.0000
# 5 0.0000 0.0000 0.0000 0.0000 29.8216 0.0000
# 6 0.0000 0.0000 0.0000 0.0000 0.0000 33.0993
#
#
#
# Elastic Compliance Matrix: (Units=1/GPa)
#
#
# Indices 1 2 3 4 5 6 
#
# 1 0.017420 -0.008942 -0.002367 0.000000 0.000000 0.000000
# 2 -0.008942 0.017420 -0.002367 0.000000 0.000000 0.000000
# 3 -0.002367 -0.002367 0.008290 0.000000 0.000000 0.000000
# 4 0.000000 0.000000 0.000000 0.033533 0.000000 0.000000
# 5 0.000000 0.000000 0.000000 0.000000 0.033533 0.000000
# 6 0.000000 0.000000 0.000000 0.000000 0.000000 0.030212
#
#
# Mechanical properties :
#
#
# Convention : Reuss Voigt Hill
#
# Bulk Modulus (GPa) = 63.37217 64.92689 64.14953
# Shear Modulus (GPa) = 28.89856 31.24431 30.07144
#
# Velocity S-wave (km/s) = 3.59232 3.73527 3.66449
# Velocity P-wave (km/s) = 6.74577 6.89901 6.82282
#
# Compressibility (1/GPa) = 0.01577980
#
# Stress axis : x y z
#
# Youngs Moduli (GPa) = 57.40496 57.40496 120.62082
#
# Poissons Ratio (x) = 0.51333 0.28546
# Poissons Ratio (y) = 0.51333 0.28546
# Poissons Ratio (z) = 0.13585 0.13585
#
# Static dielectric constant tensor:
#      x y z
#    x 1.838870 0.000000 0.000000 
#    y 0.000000 1.838870 0.000000 
#    z 0.000000 0.000000 1.809290 
# 
# From -- ./inp_files/771.got.cif
#   From: 2010.05.17/outbox.cif.g08.bks.cpg/sg138_1_cif.got.tgz:771.got - 2010.05.20 13:08:53.
