data_PCOD9571946
_publ_section_title
;
Structure prediction by ZEFSAII (Michael W. Deem and Ramdas Pophale) SiO2 
 PCOD9571946
Probable space group: I 4/M M M
;
_chemical_formula_sum "Si O2"
_cell_formula_units_Z 96
_cell_length_a 13.904770
_cell_length_b 13.904770
_cell_length_c 25.549730
_cell_angle_alpha 90.000000
_cell_angle_beta 90.000000
_cell_angle_gamma 90.000000
_cell_volume 4939.851962
_symmetry_space_group_name_H-M "I 4/M M M"
_symmetry_group_IT_number 139
_symmetry_cell_setting 'tetragonal'
loop_
_space_group_symop_operation_xyz
x,y,z
-y,x,z
-x,-y,z
y,-x,z
x,-y,-z
-x,y,-z
y,x,-z
-y,-x,-z
-x,-y,-z
y,-x,-z
x,y,-z
-y,x,-z
-x,y,z
x,-y,z
-y,-x,z
y,x,z
1/2+x,1/2+y,1/2+z
1/2-y,1/2+x,1/2+z
1/2-x,1/2-y,1/2+z
1/2+y,1/2-x,1/2+z
1/2+x,1/2-y,1/2-z
1/2-x,1/2+y,1/2-z
1/2+y,1/2+x,1/2-z
1/2-y,1/2-x,1/2-z
1/2-x,1/2-y,1/2-z
1/2+y,1/2-x,1/2-z
1/2+x,1/2+y,1/2-z
1/2-y,1/2+x,1/2-z
1/2-x,1/2+y,1/2+z
1/2+x,1/2-y,1/2+z
1/2-y,1/2-x,1/2+z
1/2+y,1/2+x,1/2+z
loop_
_atom_site_type_symbol
_atom_site_label
_atom_site_fract_x
_atom_site_fract_y
_atom_site_fract_z
Si Si1 0.688151 0.311850 0.667164
Si Si2 0.500000 0.227014 0.611694
Si Si3 0.000000 0.277437 0.560638
Si Si4 0.891118 0.108883 0.266412
Si Si5 0.500000 0.000000 0.407913
Si Si6 0.335549 0.335549 0.122285
Si Si7 0.834316 0.000000 0.000000
O O1 0.591693 0.273708 0.639756
O O2 0.673160 0.326841 0.728736
O O3 0.766127 0.233874 0.653505
O O4 0.500000 0.265503 0.551335
O O5 0.500000 0.109600 0.616800
O O6 0.908215 0.228076 0.588122
O O7 0.000000 0.252150 0.500000
O O8 0.000000 0.393766 0.565456
O O9 0.886744 0.113257 0.328996
O O10 0.000000 0.131446 0.251055
O O11 0.906512 0.093489 0.000000
#
# Coordination Sequence:
#
# PCOD9571946 Si02
#       7
#    16  16  16  16   8  16   8
#     4  12  24  43  72 100 139 179 229 283 352 409
#     4  12  25  42  68  99 136 183 224 284 336 421
#     4  12  27  46  72 102 138 184 235 285 347 415
#     4  11  23  41  71 101 133 178 229 290 350 405
#     4  12  27  46  66  99 142 178 231 280 339 418
#     4  12  25  47  70  99 141 180 230 291 348 404
#     4  11  24  39  64 104 142 177 224 283 350 394
#
# _framework density 19.433781
#
# number of rings (size 3 to 8) (size 9 to 14) (size 15 to 20)
#    0.000    0.250    8.333    1.250    2.333    0.667 
#    3.000    0.833    0.000    2.000    0.000    0.000 
#    0.000    0.000    0.000    0.000    0.000    0.000 
#
# Total GULP energy -267649.045517 kJ/mol
# GULP energy per Si atom -5576.021782 kJ/mol
# Density = 1.938955 g / cm^3
# Si number density = 19.433781 Si / 1000 Ang^3
#
#
#
# Elastic Constant Matrix: (Units=GPa)
#
#
# Indices 1 2 3 4 5 6 
#
# 1 129.9278 49.5943 49.3132 0.0000 0.0000 0.0000
# 2 49.5943 129.9276 49.3133 0.0000 0.0000 0.0000
# 3 49.3132 49.3133 146.4350 0.0000 0.0000 0.0000
# 4 0.0000 0.0000 0.0000 -24.4687 0.0000 0.0000
# 5 0.0000 0.0000 0.0000 0.0000 -24.4672 0.0000
# 6 0.0000 0.0000 0.0000 0.0000 0.0000 -13.8642
#
#
#
# Elastic Compliance Matrix: (Units=1/GPa)
#
#
# Indices 1 2 3 4 5 6 
#
# 1 0.009641 -0.002807 -0.002302 0.000000 0.000000 0.000000
# 2 -0.002807 0.009642 -0.002302 0.000000 0.000000 0.000000
# 3 -0.002302 -0.002302 0.008379 0.000000 0.000000 0.000000
# 4 0.000000 0.000000 0.000000 -0.040868 0.000000 0.000000
# 5 0.000000 0.000000 0.000000 0.000000 -0.040871 0.000000
# 6 0.000000 0.000000 0.000000 0.000000 0.000000 -0.072128
#
#
# Mechanical properties :
#
#
# Convention : Reuss Voigt Hill
#
# Bulk Modulus (GPa) = 77.86866 78.08132 77.97499
# Shear Modulus (GPa) = -46.68329 4.64461 -21.01934
#
# Velocity S-wave (km/s) = -4.90651 1.54763 -3.29232
# Velocity P-wave (km/s) = 2.83852 6.59234 5.07524
#
# Compressibility (1/GPa) = 0.01284214
#
# Stress axis : x y z
#
# Youngs Moduli (GPa) = 103.71851 103.71830 119.34307
#
# Poissons Ratio (x) = 0.29110 0.27469
# Poissons Ratio (y) = 0.29110 0.27469
# Poissons Ratio (z) = 0.23873 0.23873
#
# Static dielectric constant tensor:
#      x y z
#    x 1.770370 0.000000 0.000000 
#    y 0.000000 1.770370 0.000000 
#    z 0.000000 0.000000 1.649780 
# 
# From -- ./inp_files/11031.got.cif
#   From: 2010.05.17/outbox.cif.g08.bks.cpg/sg139_6_cif.got.tgz:11031.got - 2010.05.20 13:14:44.
