data_PCOD9571402
_publ_section_title
;
Structure prediction by ZEFSAII (Michael W. Deem and Ramdas Pophale) SiO2 
 PCOD9571402
Probable space group: I 4/M M M
;
_chemical_formula_sum "Si O2"
_cell_formula_units_Z 240
_cell_length_a 21.879741
_cell_length_b 21.879741
_cell_length_c 31.157243
_cell_angle_alpha 90.000000
_cell_angle_beta 90.000000
_cell_angle_gamma 90.000000
_cell_volume 14915.690904
_symmetry_space_group_name_H-M "I 4/M M M"
_symmetry_group_IT_number 139
_symmetry_cell_setting 'tetragonal'
loop_
_space_group_symop_operation_xyz
x,y,z
-y,x,z
-x,-y,z
y,-x,z
x,-y,-z
-x,y,-z
y,x,-z
-y,-x,-z
-x,-y,-z
y,-x,-z
x,y,-z
-y,x,-z
-x,y,z
x,-y,z
-y,-x,z
y,x,z
1/2+x,1/2+y,1/2+z
1/2-y,1/2+x,1/2+z
1/2-x,1/2-y,1/2+z
1/2+y,1/2-x,1/2+z
1/2+x,1/2-y,1/2-z
1/2-x,1/2+y,1/2-z
1/2+y,1/2+x,1/2-z
1/2-y,1/2-x,1/2-z
1/2-x,1/2-y,1/2-z
1/2+y,1/2-x,1/2-z
1/2+x,1/2+y,1/2-z
1/2-y,1/2+x,1/2-z
1/2-x,1/2+y,1/2+z
1/2+x,1/2-y,1/2+z
1/2-y,1/2-x,1/2+z
1/2+y,1/2+x,1/2+z
loop_
_atom_site_type_symbol
_atom_site_label
_atom_site_fract_x
_atom_site_fract_y
_atom_site_fract_z
Si Si1 0.572718 0.931471 0.615935
Si Si2 0.679394 0.780672 0.398987
Si Si3 0.929513 0.713954 0.265694
Si Si4 0.336187 0.128684 0.182776
Si Si5 0.721679 0.617589 0.087318
Si Si6 0.673857 0.430646 0.000000
Si Si7 0.670128 0.071731 0.050585
Si Si8 0.430529 0.672866 0.825036
O O1 0.500000 0.936898 0.619595
O O2 0.593690 0.884454 0.652493
O O3 0.585076 0.896262 0.571449
O O4 0.599308 0.000000 0.618785
O O5 0.722658 0.722658 0.406272
O O6 0.663035 0.789987 0.349094
O O7 0.717740 0.841470 0.411654
O O8 0.617266 0.783011 0.426103
O O9 0.913466 0.700408 0.216187
O O10 0.879215 0.675261 0.291431
O O11 0.923745 0.782414 0.284152
O O12 0.000000 0.694858 0.273991
O O13 0.666561 0.666561 0.087699
O O14 0.712836 0.580463 0.131498
O O15 0.712895 0.580768 0.043296
O O16 0.650825 0.500000 0.000000
O O17 0.618198 0.381803 0.000000
O O18 0.683321 0.000000 0.059097
O O19 0.669940 0.081676 0.000000
O O20 0.500000 0.649555 0.826261
O O21 0.380979 0.619021 0.824106
#
# Coordination Sequence:
#
# PCOD9571402 Si02
#       8
#    32  32  32  32  32  16  32  32
#     4   9  17  30  48  68  96 135 172 207 246 290
#     4  10  20  34  54  76 100 135 174 211 256 308
#     4  10  20  32  49  72  99 131 164 205 255 305
#     4  10  19  32  49  71  99 128 167 210 251 300
#     4   9  18  33  50  72 101 130 167 212 256 297
#     4  10  20  33  50  72 101 137 175 219 264 308
#     4   9  19  34  51  74 105 137 171 214 260 301
#     4  10  20  35  53  73 100 132 167 211 260 307
#
# _framework density 16.090437999999999
#
# number of rings (size 3 to 8) (size 9 to 14) (size 15 to 20)
#    0.000    2.400    1.333    1.200    0.933    1.800 
#    0.000    3.333    0.000    5.600    0.000    0.000 
#    0.000    0.267    0.000    1.467    0.000    0.267 
#
# Total GULP energy -668394.210327 kJ/mol
# GULP energy per Si atom -5569.951753 kJ/mol
# Density = 1.605382 g / cm^3
# Si number density = 16.090438 Si / 1000 Ang^3
#
#
#
# Elastic Constant Matrix: (Units=GPa)
#
#
# Indices 1 2 3 4 5 6 
#
# 1 69.6869 37.3604 46.0559 0.0000 0.0000 0.0000
# 2 37.3604 69.6870 46.0560 0.0000 0.0000 0.0000
# 3 46.0559 46.0560 100.5899 0.0000 0.0000 0.0000
# 4 0.0000 0.0000 0.0000 12.9006 0.0000 0.0000
# 5 0.0000 0.0000 0.0000 0.0000 12.9008 0.0000
# 6 0.0000 0.0000 0.0000 0.0000 0.0000 22.1407
#
#
#
# Elastic Compliance Matrix: (Units=1/GPa)
#
#
# Indices 1 2 3 4 5 6 
#
# 1 0.023175 -0.007760 -0.007058 0.000000 0.000000 0.000000
# 2 -0.007760 0.023175 -0.007058 0.000000 0.000000 0.000000
# 3 -0.007058 -0.007058 0.016404 0.000000 0.000000 0.000000
# 4 0.000000 0.000000 0.000000 0.077516 0.000000 0.000000
# 5 0.000000 0.000000 0.000000 0.000000 0.077515 0.000000
# 6 0.000000 0.000000 0.000000 0.000000 0.000000 0.045166
#
#
# Mechanical properties :
#
#
# Convention : Reuss Voigt Hill
#
# Bulk Modulus (GPa) = 52.62424 55.43427 54.02926
# Shear Modulus (GPa) = 15.97267 16.95450 16.46359
#
# Velocity S-wave (km/s) = 3.15410 3.24960 3.20221
# Velocity P-wave (km/s) = 6.78533 6.97182 6.87921
#
# Compressibility (1/GPa) = 0.01900265
#
# Stress axis : x y z
#
# Youngs Moduli (GPa) = 43.15081 43.15078 60.95972
#
# Poissons Ratio (x) = 0.33484 0.43024
# Poissons Ratio (y) = 0.33484 0.43024
# Poissons Ratio (z) = 0.30455 0.30455
#
# Static dielectric constant tensor:
#      x y z
#    x 1.540940 0.000000 0.000000 
#    y 0.000000 1.540940 0.000000 
#    z 0.000000 0.000000 1.555830 
# 
# From -- ./inp_files/14673.got.cif
#   From: 2010.05.17/outbox.cif.g08.bks.cpg/sg139_8_cif.got.tgz:14673.got - 2010.05.20 13:14:44.
