data_PCOD9571584
_publ_section_title
;
Structure prediction by ZEFSAII (Michael W. Deem and Ramdas Pophale) SiO2 
 PCOD9571584
Probable space group: I 4/M M M
;
_chemical_formula_sum "Si O2"
_cell_formula_units_Z 176
_cell_length_a 19.085924
_cell_length_b 19.085924
_cell_length_c 27.973948
_cell_angle_alpha 90.000000
_cell_angle_beta 90.000000
_cell_angle_gamma 90.000000
_cell_volume 10190.139831
_symmetry_space_group_name_H-M "I 4/M M M"
_symmetry_group_IT_number 139
_symmetry_cell_setting 'tetragonal'
loop_
_space_group_symop_operation_xyz
x,y,z
-y,x,z
-x,-y,z
y,-x,z
x,-y,-z
-x,y,-z
y,x,-z
-y,-x,-z
-x,-y,-z
y,-x,-z
x,y,-z
-y,x,-z
-x,y,z
x,-y,z
-y,-x,z
y,x,z
1/2+x,1/2+y,1/2+z
1/2-y,1/2+x,1/2+z
1/2-x,1/2-y,1/2+z
1/2+y,1/2-x,1/2+z
1/2+x,1/2-y,1/2-z
1/2-x,1/2+y,1/2-z
1/2+y,1/2+x,1/2-z
1/2-y,1/2-x,1/2-z
1/2-x,1/2-y,1/2-z
1/2+y,1/2-x,1/2-z
1/2+x,1/2+y,1/2-z
1/2-y,1/2+x,1/2-z
1/2-x,1/2+y,1/2+z
1/2+x,1/2-y,1/2+z
1/2-y,1/2-x,1/2+z
1/2+y,1/2+x,1/2+z
loop_
_atom_site_type_symbol
_atom_site_label
_atom_site_fract_x
_atom_site_fract_y
_atom_site_fract_z
Si Si1 0.190797 0.582495 0.556185
Si Si2 0.697924 0.581138 0.827408
Si Si3 0.419557 0.697598 0.000000
Si Si4 0.638265 0.756783 0.731155
Si Si5 0.697441 0.917831 0.588967
Si Si6 0.699133 0.581641 0.362911
O O1 0.200719 0.597842 0.500000
O O2 0.173210 0.500000 0.560750
O O3 0.130310 0.631669 0.577173
O O4 0.260147 0.594731 0.587610
O O5 0.680360 0.500000 0.836770
O O6 0.632781 0.632781 0.835668
O O7 0.723877 0.591622 0.773260
O O8 0.761552 0.601413 0.862612
O O9 0.409472 0.746482 0.953754
O O10 0.500000 0.672653 0.000000
O O11 0.365363 0.634638 0.000000
O O12 0.704623 0.704623 0.725151
O O13 0.670159 0.829842 0.750000
O O14 0.599283 0.752416 0.680678
O O15 0.678027 0.000000 0.591157
O O16 0.679509 0.500000 0.360130
O O17 0.632451 0.632451 0.358623
#
# Coordination Sequence:
#
# PCOD9571584 Si02
#       6
#    32  32  16  32  32  32
#     4  10  21  37  56  80 107 134 171 220 274 330
#     4  10  20  33  51  76 107 143 183 224 263 310
#     4  10  20  33  49  71 101 137 176 216 256 302
#     4   9  17  31  52  76 102 134 173 215 262 311
#     4  10  20  35  53  77 106 136 174 217 263 318
#     4  10  21  36  54  78 108 141 180 223 266 318
#
# _framework density 17.271598000000001
#
# number of rings (size 3 to 8) (size 9 to 14) (size 15 to 20)
#    0.000    2.182    0.909    2.182    0.000    4.091 
#    0.000    0.909    0.000    6.545    0.000    2.545 
#    0.000   13.091    0.000    0.000    0.000    0.000 
#
# Total GULP energy -490831.243228 kJ/mol
# GULP energy per Si atom -5577.627764 kJ/mol
# Density = 1.723229 g / cm^3
# Si number density = 17.271598 Si / 1000 Ang^3
#
#
#
# Elastic Constant Matrix: (Units=GPa)
#
#
# Indices 1 2 3 4 5 6 
#
# 1 78.5182 65.9371 37.1510 0.0000 0.0000 0.0000
# 2 65.9371 78.5171 37.1509 0.0000 0.0000 0.0000
# 3 37.1510 37.1509 96.3227 0.0000 0.0000 0.0000
# 4 0.0000 0.0000 0.0000 16.6588 0.0000 0.0000
# 5 0.0000 0.0000 0.0000 0.0000 16.6605 0.0000
# 6 0.0000 0.0000 0.0000 0.0000 0.0000 11.4179
#
#
#
# Elastic Compliance Matrix: (Units=1/GPa)
#
#
# Indices 1 2 3 4 5 6 
#
# 1 0.044061 -0.035426 -0.003331 0.000000 0.000000 0.000000
# 2 -0.035426 0.044062 -0.003331 0.000000 0.000000 0.000000
# 3 -0.003331 -0.003331 0.012951 0.000000 0.000000 0.000000
# 4 0.000000 0.000000 0.000000 0.060028 0.000000 0.000000
# 5 0.000000 0.000000 0.000000 0.000000 0.060022 0.000000
# 6 0.000000 0.000000 0.000000 0.000000 0.000000 0.087582
#
#
# Mechanical properties :
#
#
# Convention : Reuss Voigt Hill
#
# Bulk Modulus (GPa) = 59.17296 59.31512 59.24404
# Shear Modulus (GPa) = 12.54656 16.48869 14.51762
#
# Velocity S-wave (km/s) = 2.69816 3.09313 2.90237
# Velocity P-wave (km/s) = 6.63637 6.86831 6.75334
#
# Compressibility (1/GPa) = 0.01689961
#
# Stress axis : x y z
#
# Youngs Moduli (GPa) = 22.69561 22.69524 77.21367
#
# Poissons Ratio (x) = 0.80400 0.25717
# Poissons Ratio (y) = 0.80401 0.25719
# Poissons Ratio (z) = 0.07559 0.07559
#
# Static dielectric constant tensor:
#      x y z
#    x 1.567460 0.000000 0.000000 
#    y 0.000000 1.567460 0.000000 
#    z 0.000000 0.000000 1.601700 
# 
# From -- ./inp_files/13084.got.cif
#   From: 2010.05.17/outbox.cif.g08.bks.cpg/sg139_7_cif.got.tgz:13084.got - 2010.05.20 13:14:44.
