data_PCOD9571999
_publ_section_title
;
Structure prediction by ZEFSAII (Michael W. Deem and Ramdas Pophale) SiO2 
 PCOD9571999
Probable space group: I 4/M C M
;
_chemical_formula_sum "Si O2"
_cell_formula_units_Z 112
_cell_length_a 17.781569
_cell_length_b 17.781569
_cell_length_c 17.749046
_cell_angle_alpha 90.000000
_cell_angle_beta 90.000000
_cell_angle_gamma 90.000000
_cell_volume 5611.967841
_symmetry_space_group_name_H-M "I 4/M C M"
_symmetry_group_IT_number 140
_symmetry_cell_setting 'tetragonal'
loop_
_space_group_symop_operation_xyz
x,y,z
-y,x,z
-x,-y,z
y,-x,z
x,-y,1/2-z
-x,y,1/2-z
y,x,1/2-z
-y,-x,1/2-z
-x,-y,-z
y,-x,-z
x,y,-z
-y,x,-z
-x,y,1/2+z
x,-y,1/2+z
-y,-x,1/2+z
y,x,1/2+z
1/2+x,1/2+y,1/2+z
1/2-y,1/2+x,1/2+z
1/2-x,1/2-y,1/2+z
1/2+y,1/2-x,1/2+z
1/2+x,1/2-y,-z
1/2-x,1/2+y,-z
1/2+y,1/2+x,-z
1/2-y,1/2-x,-z
1/2-x,1/2-y,1/2-z
1/2+y,1/2-x,1/2-z
1/2+x,1/2+y,1/2-z
1/2-y,1/2+x,1/2-z
1/2-x,1/2+y,z
1/2+x,1/2-y,z
1/2-y,1/2-x,z
1/2+y,1/2+x,z
loop_
_atom_site_type_symbol
_atom_site_label
_atom_site_fract_x
_atom_site_fract_y
_atom_site_fract_z
Si Si1 0.435569 0.064432 0.083926
Si Si2 0.958118 0.668914 0.823966
Si Si3 0.426599 0.595209 0.591518
Si Si4 0.342887 0.276497 0.409175
O O1 0.476221 0.132751 0.125376
O O2 0.500000 0.000000 0.079994
O O3 0.413452 0.086549 0.000000
O O4 0.899891 0.600110 0.804671
O O5 0.908973 0.729458 0.869083
O O6 0.000000 0.698093 0.750000
O O7 0.397811 0.512508 0.615955
O O8 0.429606 0.595888 0.500000
O O9 0.363320 0.653967 0.614462
O O10 0.354437 0.272145 0.500000
O O11 0.265470 0.234531 0.391609
#
# Coordination Sequence:
#
# PCOD9571999 Si02
#       4
#    16  32  32  32
#     4   9  16  24  38  58  84 119 164 216 250 279
#     4  10  17  26  41  61  89 128 169 201 238 299
#     4   8  14  27  50  76  98 125 166 213 253 293
#     4   9  17  28  45  71 101 127 155 200 255 304
#
# _framework density 19.957349000000001
#
# number of rings (size 3 to 8) (size 9 to 14) (size 15 to 20)
#    0.000    3.000    1.429    1.714    0.000    3.429 
#    0.000    0.000    3.143    1.714    0.000    6.000 
#    0.000    0.000    0.000    0.000    0.000    0.000 
#
# Total GULP energy -312061.941324 kJ/mol
# GULP energy per Si atom -5572.534667 kJ/mol
# Density = 1.991193 g / cm^3
# Si number density = 19.957349 Si / 1000 Ang^3
#
#
#
# Elastic Constant Matrix: (Units=GPa)
#
#
# Indices 1 2 3 4 5 6 
#
# 1 51.7027 10.1877 -2.8768 0.0000 0.0000 0.0000
# 2 10.1877 51.7027 -2.8769 0.0000 0.0000 0.0000
# 3 -2.8768 -2.8769 28.0726 0.0000 0.0000 0.0000
# 4 0.0000 0.0000 0.0000 -1.6131 0.0000 0.0000
# 5 0.0000 0.0000 0.0000 0.0000 -1.6132 0.0000
# 6 0.0000 0.0000 0.0000 0.0000 0.0000 7.8830
#
#
#
# Elastic Compliance Matrix: (Units=1/GPa)
#
#
# Indices 1 2 3 4 5 6 
#
# 1 0.020200 -0.003887 0.001672 0.000000 0.000000 0.000000
# 2 -0.003887 0.020200 0.001672 0.000000 0.000000 0.000000
# 3 0.001672 0.001672 0.035965 0.000000 0.000000 0.000000
# 4 0.000000 0.000000 0.000000 -0.619908 0.000000 0.000000
# 5 0.000000 0.000000 0.000000 0.000000 -0.619897 0.000000
# 6 0.000000 0.000000 0.000000 0.000000 0.000000 0.126855
#
#
# Mechanical properties :
#
#
# Convention : Reuss Voigt Hill
#
# Bulk Modulus (GPa) = 13.28419 15.59401 14.43910
# Shear Modulus (GPa) = -4.94852 9.40094 2.22621
#
# Velocity S-wave (km/s) = -1.57637 2.17273 1.05731
# Velocity P-wave (km/s) = 1.83235 3.75832 2.95656
#
# Compressibility (1/GPa) = 0.07527747
#
# Stress axis : x y z
#
# Youngs Moduli (GPa) = 49.50414 49.50405 27.80517
#
# Poissons Ratio (x) = 0.19244 -0.04648
# Poissons Ratio (y) = 0.19244 -0.04648
# Poissons Ratio (z) = -0.08276 -0.08276
#
# Static dielectric constant tensor:
#      x y z
#    x 1.712240 0.000000 0.000000 
#    y 0.000000 1.712240 0.000000 
#    z 0.000000 0.000000 1.699870 
# 
# From -- ./inp_files/6065.got.cif
#   From: 2010.05.17/outbox.cif.g08.bks.cpg/sg140_4_cif.got.tgz:6065.got - 2010.06.21 00:45:31.
