data_PCOD9571624
_publ_section_title
;
Structure prediction by ZEFSAII (Michael W. Deem and Ramdas Pophale) SiO2 
 PCOD9571624
Probable space group: I 4/M M M
;
_chemical_formula_sum "Si O2"
_cell_formula_units_Z 128
_cell_length_a 21.068823
_cell_length_b 21.068823
_cell_length_c 15.114833
_cell_angle_alpha 90.000000
_cell_angle_beta 90.000000
_cell_angle_gamma 90.000000
_cell_volume 6709.403368
_symmetry_space_group_name_H-M "I 4/M M M"
_symmetry_group_IT_number 139
_symmetry_cell_setting 'tetragonal'
loop_
_space_group_symop_operation_xyz
x,y,z
-y,x,z
-x,-y,z
y,-x,z
x,-y,-z
-x,y,-z
y,x,-z
-y,-x,-z
-x,-y,-z
y,-x,-z
x,y,-z
-y,x,-z
-x,y,z
x,-y,z
-y,-x,z
y,x,z
1/2+x,1/2+y,1/2+z
1/2-y,1/2+x,1/2+z
1/2-x,1/2-y,1/2+z
1/2+y,1/2-x,1/2+z
1/2+x,1/2-y,1/2-z
1/2-x,1/2+y,1/2-z
1/2+y,1/2+x,1/2-z
1/2-y,1/2-x,1/2-z
1/2-x,1/2-y,1/2-z
1/2+y,1/2-x,1/2-z
1/2+x,1/2+y,1/2-z
1/2-y,1/2+x,1/2-z
1/2-x,1/2+y,1/2+z
1/2+x,1/2-y,1/2+z
1/2-y,1/2-x,1/2+z
1/2+y,1/2+x,1/2+z
loop_
_atom_site_type_symbol
_atom_site_label
_atom_site_fract_x
_atom_site_fract_y
_atom_site_fract_z
Si Si1 0.876704 0.123297 0.228423
Si Si2 0.425780 0.425780 0.091862
Si Si3 0.784331 0.215670 0.668868
Si Si4 0.225613 0.928728 0.898449
Si Si5 0.423013 0.923013 0.250000
Si Si6 0.152234 0.343107 0.603676
O O1 0.910709 0.089292 0.307687
O O2 0.831353 0.168648 0.283926
O O3 0.919199 0.167002 0.165960
O O4 0.500000 0.413024 0.085397
O O5 0.396483 0.396483 0.000000
O O6 0.750000 0.250000 0.750000
O O7 0.730141 0.173770 0.619666
O O8 0.282206 0.880817 0.878430
O O9 0.250776 0.000000 0.891315
O O10 0.205629 0.917727 0.000000
O O11 0.500000 0.913982 0.264546
O O12 0.377366 0.898798 0.331319
O O13 0.135094 0.351191 0.500000
#
# Coordination Sequence:
#
# PCOD9571624 Si02
#       6
#    16  16  16  32  16  32
#     4  12  20  33  57  81 115 143 182 227 290 340
#     4   9  20  39  58  76 103 144 192 233 273 330
#     4  12  21  37  59  89 117 151 188 236 295 355
#     4  10  20  33  53  82 112 145 186 229 277 343
#     4  11  24  41  62  90 122 159 208 257 298 352
#     4  11  22  40  62  85 117 156 196 242 299 358
#
# _framework density 19.077703
#
# number of rings (size 3 to 8) (size 9 to 14) (size 15 to 20)
#    0.000    1.250    3.750    2.625    0.000    5.000 
#    0.000    2.500    0.000    0.000    0.000    5.250 
#    0.000    0.000    0.000    0.000    0.000    0.000 
#
# Total GULP energy -356332.070764 kJ/mol
# GULP energy per Si atom -5567.688606 kJ/mol
# Density = 1.903428 g / cm^3
# Si number density = 19.077703 Si / 1000 Ang^3
#
#
#
# Elastic Constant Matrix: (Units=GPa)
#
#
# Indices 1 2 3 4 5 6 
#
# 1 59.9174 27.7503 30.9120 0.0000 0.0000 0.0000
# 2 27.7503 59.9174 30.9120 0.0000 0.0000 0.0000
# 3 30.9120 30.9120 98.9210 0.0000 0.0000 0.0000
# 4 0.0000 0.0000 0.0000 28.9320 0.0000 0.0000
# 5 0.0000 0.0000 0.0000 0.0000 28.9320 0.0000
# 6 0.0000 0.0000 0.0000 0.0000 0.0000 28.8256
#
#
#
# Elastic Compliance Matrix: (Units=1/GPa)
#
#
# Indices 1 2 3 4 5 6 
#
# 1 0.022859 -0.008228 -0.004572 0.000000 0.000000 0.000000
# 2 -0.008228 0.022859 -0.004572 0.000000 0.000000 0.000000
# 3 -0.004572 -0.004572 0.012967 0.000000 0.000000 0.000000
# 4 0.000000 0.000000 0.000000 0.034564 0.000000 0.000000
# 5 0.000000 0.000000 0.000000 0.000000 0.034564 0.000000
# 6 0.000000 0.000000 0.000000 0.000000 0.000000 0.034691
#
#
# Mechanical properties :
#
#
# Convention : Reuss Voigt Hill
#
# Bulk Modulus (GPa) = 41.77070 44.21162 42.99116
# Shear Modulus (GPa) = 24.36302 25.95004 25.15653
#
# Velocity S-wave (km/s) = 3.57745 3.69213 3.63524
# Velocity P-wave (km/s) = 6.24554 6.43433 6.34064
#
# Compressibility (1/GPa) = 0.02394022
#
# Stress axis : x y z
#
# Youngs Moduli (GPa) = 43.74582 43.74582 77.12158
#
# Poissons Ratio (x) = 0.35996 0.35260
# Poissons Ratio (y) = 0.35996 0.35260
# Poissons Ratio (z) = 0.20001 0.20001
#
# Static dielectric constant tensor:
#      x y z
#    x 5.116180 0.000000 0.000000 
#    y 0.000000 5.116180 0.000000 
#    z 0.000000 0.000000 1.624990 
# 
# From -- ./inp_files/5536.got.cif
#   From: 2010.05.17/outbox.cif.g08.bks.cpg/sg139_3_cif.got.tgz:5536.got - 2010.05.20 13:14:44.
