data_PCOD9571867
_publ_section_title
;
Structure prediction by ZEFSAII (Michael W. Deem and Ramdas Pophale) SiO2 
 PCOD9571867
Probable space group: I 4/M M M
;
_chemical_formula_sum "Si O2"
_cell_formula_units_Z 176
_cell_length_a 24.309607
_cell_length_b 24.309607
_cell_length_c 15.030471
_cell_angle_alpha 90.000000
_cell_angle_beta 90.000000
_cell_angle_gamma 90.000000
_cell_volume 8882.361938
_symmetry_space_group_name_H-M "I 4/M M M"
_symmetry_group_IT_number 139
_symmetry_cell_setting 'tetragonal'
loop_
_space_group_symop_operation_xyz
x,y,z
-y,x,z
-x,-y,z
y,-x,z
x,-y,-z
-x,y,-z
y,x,-z
-y,-x,-z
-x,-y,-z
y,-x,-z
x,y,-z
-y,x,-z
-x,y,z
x,-y,z
-y,-x,z
y,x,z
1/2+x,1/2+y,1/2+z
1/2-y,1/2+x,1/2+z
1/2-x,1/2-y,1/2+z
1/2+y,1/2-x,1/2+z
1/2+x,1/2-y,1/2-z
1/2-x,1/2+y,1/2-z
1/2+y,1/2+x,1/2-z
1/2-y,1/2-x,1/2-z
1/2-x,1/2-y,1/2-z
1/2+y,1/2-x,1/2-z
1/2+x,1/2+y,1/2-z
1/2-y,1/2+x,1/2-z
1/2-x,1/2+y,1/2+z
1/2+x,1/2-y,1/2+z
1/2-y,1/2-x,1/2+z
1/2+y,1/2+x,1/2+z
loop_
_atom_site_type_symbol
_atom_site_label
_atom_site_fract_x
_atom_site_fract_y
_atom_site_fract_z
Si Si1 0.255506 0.415546 0.770507
Si Si2 0.260608 0.260608 0.643146
Si Si3 0.808175 0.440972 0.399952
Si Si4 0.434918 0.565083 0.607858
Si Si5 0.146419 0.680556 0.599853
Si Si6 0.440751 0.351992 0.104566
Si Si7 0.843834 0.843834 0.826249
O O1 0.234936 0.443011 0.680155
O O2 0.203628 0.392904 0.824152
O O3 0.295662 0.442933 0.841637
O O4 0.296123 0.369998 0.732402
O O5 0.250000 0.250000 0.750000
O O6 0.283919 0.202510 0.608745
O O7 0.305901 0.305901 0.609973
O O8 0.783266 0.437335 0.500000
O O9 0.838823 0.500000 0.397216
O O10 0.840856 0.384104 0.388435
O O11 0.423304 0.500000 0.632583
O O12 0.432501 0.567500 0.500000
O O13 0.389561 0.610440 0.643030
O O14 0.124437 0.688860 0.500000
O O15 0.500000 0.380333 0.114936
O O16 0.392356 0.392356 0.134952
O O17 0.432368 0.340763 0.000000
#
# Coordination Sequence:
#
# PCOD9571867 Si02
#       7
#    32  16  32  16  32  32  16
#     4  12  21  39  58  85 119 157 201 252 313 375
#     4  12  19  36  51  80 122 161 201 250 309 386
#     4  10  22  38  57  84 119 160 200 238 289 356
#     4   9  22  46  67  84 117 169 229 287 335 378
#     4  11  22  36  59  86 121 165 204 247 306 379
#     4  10  22  39  59  84 113 152 204 258 311 364
#     4  12  23  33  58  83 113 153 207 268 318 378
#
# _framework density 19.814550000000001
#
# number of rings (size 3 to 8) (size 9 to 14) (size 15 to 20)
#    0.000    1.182    4.545    2.182    0.000    3.091 
#    0.000    2.727    0.000    0.000    0.000    0.000 
#    0.000   12.364    0.000   80.909    0.000    0.727 
#
# Total GULP energy -489900.084859 kJ/mol
# GULP energy per Si atom -5567.046419 kJ/mol
# Density = 1.976945 g / cm^3
# Si number density = 19.814550 Si / 1000 Ang^3
#
#
#
# Elastic Constant Matrix: (Units=GPa)
#
#
# Indices 1 2 3 4 5 6 
#
# 1 122.0336 4.6395 49.8507 0.0000 0.0000 0.0000
# 2 4.6395 122.0336 49.8508 0.0000 0.0000 0.0000
# 3 49.8507 49.8508 126.0874 0.0000 0.0000 0.0000
# 4 0.0000 0.0000 0.0000 41.2555 0.0000 0.0000
# 5 0.0000 0.0000 0.0000 0.0000 41.2555 0.0000
# 6 0.0000 0.0000 0.0000 0.0000 0.0000 6.1786
#
#
#
# Elastic Compliance Matrix: (Units=1/GPa)
#
#
# Indices 1 2 3 4 5 6 
#
# 1 0.009990 0.001471 -0.004531 0.000000 0.000000 0.000000
# 2 0.001471 0.009990 -0.004531 0.000000 0.000000 0.000000
# 3 -0.004531 -0.004531 0.011514 0.000000 0.000000 0.000000
# 4 0.000000 0.000000 0.000000 0.024239 0.000000 0.000000
# 5 0.000000 0.000000 0.000000 0.000000 0.024239 0.000000
# 6 0.000000 0.000000 0.000000 0.000000 0.000000 0.161850
#
#
# Mechanical properties :
#
#
# Convention : Reuss Voigt Hill
#
# Bulk Modulus (GPa) = 61.30954 64.31517 62.81236
# Shear Modulus (GPa) = 19.05192 35.45882 27.25537
#
# Velocity S-wave (km/s) = 3.10419 4.23488 3.71283
# Velocity P-wave (km/s) = 6.62245 7.51274 7.08160
#
# Compressibility (1/GPa) = 0.01631067
#
# Stress axis : x y z
#
# Youngs Moduli (GPa) = 100.10488 100.10485 86.85105
#
# Poissons Ratio (x) = -0.14728 0.39354
# Poissons Ratio (y) = -0.14728 0.39354
# Poissons Ratio (z) = 0.45359 0.45359
#
# Static dielectric constant tensor:
#      x y z
#    x 1.742030 0.000000 0.000000 
#    y 0.000000 1.742030 0.000000 
#    z 0.000000 0.000000 1.787820 
# 
# From -- ./inp_files/6164.got.cif
#   From: 2010.05.17/outbox.cif.g08.bks.cpg/sg139_4_cif.got.tgz:6164.got - 2010.05.20 13:14:44.
