data_PCOD9571703
_publ_section_title
;
Structure prediction by ZEFSAII (Michael W. Deem and Ramdas Pophale) SiO2 
 PCOD9571703
Probable space group: I 4/M M M
;
_chemical_formula_sum "Si O2"
_cell_formula_units_Z 160
_cell_length_a 31.143022
_cell_length_b 31.143022
_cell_length_c 8.892860
_cell_angle_alpha 90.000000
_cell_angle_beta 90.000000
_cell_angle_gamma 90.000000
_cell_volume 8625.076593
_symmetry_space_group_name_H-M "I 4/M M M"
_symmetry_group_IT_number 139
_symmetry_cell_setting 'tetragonal'
loop_
_space_group_symop_operation_xyz
x,y,z
-y,x,z
-x,-y,z
y,-x,z
x,-y,-z
-x,y,-z
y,x,-z
-y,-x,-z
-x,-y,-z
y,-x,-z
x,y,-z
-y,x,-z
-x,y,z
x,-y,z
-y,-x,z
y,x,z
1/2+x,1/2+y,1/2+z
1/2-y,1/2+x,1/2+z
1/2-x,1/2-y,1/2+z
1/2+y,1/2-x,1/2+z
1/2+x,1/2-y,1/2-z
1/2-x,1/2+y,1/2-z
1/2+y,1/2+x,1/2-z
1/2-y,1/2-x,1/2-z
1/2-x,1/2-y,1/2-z
1/2+y,1/2-x,1/2-z
1/2+x,1/2+y,1/2-z
1/2-y,1/2+x,1/2-z
1/2-x,1/2+y,1/2+z
1/2+x,1/2-y,1/2+z
1/2-y,1/2-x,1/2+z
1/2+y,1/2+x,1/2+z
loop_
_atom_site_type_symbol
_atom_site_label
_atom_site_fract_x
_atom_site_fract_y
_atom_site_fract_z
Si Si1 0.211350 0.895652 0.677516
Si Si2 0.118560 0.118560 0.181090
Si Si3 0.951231 0.048770 0.817040
Si Si4 0.948559 0.285328 0.825739
Si Si5 0.756439 0.683625 0.670579
Si Si6 0.449502 0.117709 0.682071
O O1 0.204972 0.897567 0.500000
O O2 0.165196 0.895193 0.758185
O O3 0.245283 0.931150 0.732465
O O4 0.234308 0.851855 0.727986
O O5 0.083487 0.083487 0.230380
O O6 0.120401 0.120401 0.000000
O O7 0.000000 0.058945 0.769460
O O8 0.951195 0.048806 0.000000
O O9 0.935840 0.333496 0.773745
O O10 0.000000 0.285251 0.823199
O O11 0.934990 0.280221 0.000000
O O12 0.764113 0.668603 0.500000
O O13 0.722961 0.722961 0.661051
O O14 0.798891 0.701110 0.750000
O O15 0.447766 0.116143 0.500000
O O16 0.500000 0.111475 0.724317
O O17 0.418159 0.081842 0.750000
#
# Coordination Sequence:
#
# PCOD9571703 Si02
#       6
#    32  16  16  32  32  32
#     4  12  24  37  56  83 117 152 190 238 289 341
#     4  11  22  37  59  87 118 153 192 233 283 342
#     4   8  16  34  61  91 117 141 178 229 281 338
#     4   9  20  40  61  79 107 150 197 242 288 343
#     4  10  20  35  56  79 107 143 184 227 273 328
#     4   9  19  36  58  85 116 151 192 238 288 342
#
# _framework density 18.550560000000001
#
# number of rings (size 3 to 8) (size 9 to 14) (size 15 to 20)
#    0.000    2.100    1.000    4.200    0.000    4.200 
#    0.000    7.000    0.000    1.800    0.000    2.800 
#    0.000    0.000    0.000    0.000    0.000    0.000 
#
# Total GULP energy -446305.442718 kJ/mol
# GULP energy per Si atom -5578.818034 kJ/mol
# Density = 1.850834 g / cm^3
# Si number density = 18.550560 Si / 1000 Ang^3
#
#
#
# Elastic Constant Matrix: (Units=GPa)
#
#
# Indices 1 2 3 4 5 6 
#
# 1 135.6335 58.1359 40.4700 0.0000 0.0000 0.0000
# 2 58.1359 135.6425 40.4612 0.0000 0.0000 0.0000
# 3 40.4700 40.4612 79.7899 0.0000 0.0000 0.0000
# 4 0.0000 0.0000 0.0000 23.0175 0.0000 0.0000
# 5 0.0000 0.0000 0.0000 0.0000 23.0188 0.0000
# 6 0.0000 0.0000 0.0000 0.0000 0.0000 33.7049
#
#
#
# Elastic Compliance Matrix: (Units=1/GPa)
#
#
# Indices 1 2 3 4 5 6 
#
# 1 0.009726 -0.003178 -0.003322 0.000000 0.000000 0.000000
# 2 -0.003178 0.009724 -0.003319 0.000000 0.000000 0.000000
# 3 -0.003322 -0.003319 0.015901 0.000000 0.000000 0.000000
# 4 0.000000 0.000000 0.000000 0.043445 0.000000 0.000000
# 5 0.000000 0.000000 0.000000 0.000000 0.043443 0.000000
# 6 0.000000 0.000000 0.000000 0.000000 0.000000 0.029669
#
#
# Mechanical properties :
#
#
# Convention : Reuss Voigt Hill
#
# Bulk Modulus (GPa) = 63.63875 69.91111 66.77493
# Shear Modulus (GPa) = 28.28308 30.08151 29.18229
#
# Velocity S-wave (km/s) = 3.90891 4.03127 3.97056
# Velocity P-wave (km/s) = 7.39951 7.70953 7.55611
#
# Compressibility (1/GPa) = 0.01571370
#
# Stress axis : x y z
#
# Youngs Moduli (GPa) = 102.81767 102.83365 62.88912
#
# Poissons Ratio (x) = 0.32677 0.20890
# Poissons Ratio (y) = 0.32672 0.20876
# Poissons Ratio (z) = 0.34153 0.34136
#
# Static dielectric constant tensor:
#      x y z
#    x 1.653830 0.000000 0.000000 
#    y 0.000000 1.653830 0.000000 
#    z 0.000000 0.000000 1.634140 
# 
# From -- ./inp_files/2230.got.cif
#   From: 2010.05.17/outbox.cif.g08.bks.cpg/sg139_2_cif.got.tgz:2230.got - 2010.05.20 13:14:44.
