data_PCOD9571575
_publ_section_title
;
Structure prediction by ZEFSAII (Michael W. Deem and Ramdas Pophale) SiO2 
 PCOD9571575
Probable space group: I 4/M M M
;
_chemical_formula_sum "Si O2"
_cell_formula_units_Z 144
_cell_length_a 17.869741
_cell_length_b 17.869741
_cell_length_c 31.829072
_cell_angle_alpha 90.000000
_cell_angle_beta 90.000000
_cell_angle_gamma 90.000000
_cell_volume 10163.902554
_symmetry_space_group_name_H-M "I 4/M M M"
_symmetry_group_IT_number 139
_symmetry_cell_setting 'tetragonal'
loop_
_space_group_symop_operation_xyz
x,y,z
-y,x,z
-x,-y,z
y,-x,z
x,-y,-z
-x,y,-z
y,x,-z
-y,-x,-z
-x,-y,-z
y,-x,-z
x,y,-z
-y,x,-z
-x,y,z
x,-y,z
-y,-x,z
y,x,z
1/2+x,1/2+y,1/2+z
1/2-y,1/2+x,1/2+z
1/2-x,1/2-y,1/2+z
1/2+y,1/2-x,1/2+z
1/2+x,1/2-y,1/2-z
1/2-x,1/2+y,1/2-z
1/2+y,1/2+x,1/2-z
1/2-y,1/2-x,1/2-z
1/2-x,1/2-y,1/2-z
1/2+y,1/2-x,1/2-z
1/2+x,1/2+y,1/2-z
1/2-y,1/2+x,1/2-z
1/2-x,1/2+y,1/2+z
1/2+x,1/2-y,1/2+z
1/2-y,1/2-x,1/2+z
1/2+y,1/2+x,1/2+z
loop_
_atom_site_type_symbol
_atom_site_label
_atom_site_fract_x
_atom_site_fract_y
_atom_site_fract_z
Si Si1 0.500000 0.091089 0.407623
Si Si2 0.864909 0.635092 0.750000
Si Si3 0.090440 0.500000 0.310040
Si Si4 0.412574 0.290111 0.107026
Si Si5 0.408910 0.152809 0.048144
Si Si6 0.911664 0.787955 0.293509
O O1 0.500000 0.112824 0.358801
O O2 0.425433 0.115922 0.431632
O O3 0.500000 0.000000 0.408165
O O4 0.880914 0.573428 0.714014
O O5 0.879059 0.717465 0.731710
O O6 0.000000 0.500000 0.307645
O O7 0.500000 0.305166 0.098622
O O8 0.362043 0.362043 0.098837
O O9 0.387493 0.221516 0.077937
O O10 0.406113 0.271021 0.156498
O O11 0.500000 0.151424 0.047852
O O12 0.384194 0.161046 0.000000
O O13 0.861742 0.861742 0.285541
O O14 0.000000 0.797985 0.283987
#
# Coordination Sequence:
#
# PCOD9571575 Si02
#       6
#    16  16  16  32  32  32
#     4   9  17  26  41  62  86 115 143 175 217 264
#     4  12  18  30  44  68  92 117 151 186 232 276
#     4  11  18  27  42  65  95 121 145 181 223 278
#     4   9  18  31  45  63  86 116 150 187 225 260
#     4   9  16  27  42  61  84 111 144 181 220 264
#     4  10  20  33  48  65  89 119 155 193 231 273
#
# _framework density 14.167786
#
# number of rings (size 3 to 8) (size 9 to 14) (size 15 to 20)
#    0.000    2.222    2.222    2.000    0.000    5.778 
#    0.000    2.222    0.000    0.000    0.000    3.111 
#    0.000    0.000    0.000    0.000    0.000    0.222 
#
# Total GULP energy -401299.843264 kJ/mol
# GULP energy per Si atom -5573.608934 kJ/mol
# Density = 1.413554 g / cm^3
# Si number density = 14.167786 Si / 1000 Ang^3
#
#
#
# Elastic Constant Matrix: (Units=GPa)
#
#
# Indices 1 2 3 4 5 6 
#
# 1 88.5601 62.9361 56.4210 0.0000 0.0000 0.0000
# 2 62.9361 88.5608 56.4214 0.0000 0.0000 0.0000
# 3 56.4210 56.4214 79.4636 0.0000 0.0000 0.0000
# 4 0.0000 0.0000 0.0000 11.7545 0.0000 0.0000
# 5 0.0000 0.0000 0.0000 0.0000 11.7548 0.0000
# 6 0.0000 0.0000 0.0000 0.0000 0.0000 16.6114
#
#
#
# Elastic Compliance Matrix: (Units=1/GPa)
#
#
# Indices 1 2 3 4 5 6 
#
# 1 0.026518 -0.012507 -0.009948 0.000000 0.000000 0.000000
# 2 -0.012507 0.026518 -0.009948 0.000000 0.000000 0.000000
# 3 -0.009948 -0.009948 0.026711 0.000000 0.000000 0.000000
# 4 0.000000 0.000000 0.000000 0.085074 0.000000 0.000000
# 5 0.000000 0.000000 0.000000 0.000000 0.085071 0.000000
# 6 0.000000 0.000000 0.000000 0.000000 0.000000 0.060199
#
#
# Mechanical properties :
#
#
# Convention : Reuss Voigt Hill
#
# Bulk Modulus (GPa) = 66.93211 67.57127 67.25169
# Shear Modulus (GPa) = 13.16215 13.41122 13.28669
#
# Velocity S-wave (km/s) = 3.05129 3.08002 3.06569
# Velocity P-wave (km/s) = 7.73038 7.77469 7.75257
#
# Compressibility (1/GPa) = 0.01494051
#
# Stress axis : x y z
#
# Youngs Moduli (GPa) = 37.71040 37.71041 37.43819
#
# Poissons Ratio (x) = 0.47166 0.37242
# Poissons Ratio (y) = 0.47166 0.37243
# Poissons Ratio (z) = 0.37513 0.37514
#
# Static dielectric constant tensor:
#      x y z
#    x 1.449400 0.000000 0.000000 
#    y 0.000000 1.449400 0.000000 
#    z 0.000000 0.000000 1.469440 
# 
# From -- ./inp_files/12864.got.cif
#   From: 2010.05.17/outbox.cif.g08.bks.cpg/sg139_7_cif.got.tgz:12864.got - 2010.05.20 13:14:44.
