data_PCOD9571447
_publ_section_title
;
Structure prediction by ZEFSAII (Michael W. Deem and Ramdas Pophale) SiO2 
 PCOD9571447
Probable space group: I 4/M M M
;
_chemical_formula_sum "Si O2"
_cell_formula_units_Z 144
_cell_length_a 22.634654
_cell_length_b 22.634654
_cell_length_c 17.452657
_cell_angle_alpha 90.000000
_cell_angle_beta 90.000000
_cell_angle_gamma 90.000000
_cell_volume 8941.477206
_symmetry_space_group_name_H-M "I 4/M M M"
_symmetry_group_IT_number 139
_symmetry_cell_setting 'tetragonal'
loop_
_space_group_symop_operation_xyz
x,y,z
-y,x,z
-x,-y,z
y,-x,z
x,-y,-z
-x,y,-z
y,x,-z
-y,-x,-z
-x,-y,-z
y,-x,-z
x,y,-z
-y,x,-z
-x,y,z
x,-y,z
-y,-x,z
y,x,z
1/2+x,1/2+y,1/2+z
1/2-y,1/2+x,1/2+z
1/2-x,1/2-y,1/2+z
1/2+y,1/2-x,1/2+z
1/2+x,1/2-y,1/2-z
1/2-x,1/2+y,1/2-z
1/2+y,1/2+x,1/2-z
1/2-y,1/2-x,1/2-z
1/2-x,1/2-y,1/2-z
1/2+y,1/2-x,1/2-z
1/2+x,1/2+y,1/2-z
1/2-y,1/2+x,1/2-z
1/2-x,1/2+y,1/2+z
1/2+x,1/2-y,1/2+z
1/2-y,1/2-x,1/2+z
1/2+y,1/2+x,1/2+z
loop_
_atom_site_type_symbol
_atom_site_label
_atom_site_fract_x
_atom_site_fract_y
_atom_site_fract_z
Si Si1 0.068146 0.832975 0.500000
Si Si2 0.430348 0.933344 0.332813
Si Si3 0.155050 0.748899 0.214184
Si Si4 0.861087 0.344989 0.087545
Si Si5 0.070576 0.745309 0.355502
O O1 0.113832 0.886169 0.500000
O O2 0.076898 0.793610 0.423232
O O3 0.000000 0.852769 0.500000
O O4 0.500000 0.937913 0.321829
O O5 0.408602 0.908602 0.250000
O O6 0.417215 0.886568 0.397900
O O7 0.407834 0.000000 0.347887
O O8 0.191476 0.808525 0.197862
O O9 0.202975 0.702975 0.250000
O O10 0.134851 0.713229 0.139271
O O11 0.102802 0.760597 0.275282
O O12 0.810232 0.390789 0.115326
O O13 0.851255 0.329788 0.000000
O O14 0.000000 0.734207 0.346329
#
# Coordination Sequence:
#
# PCOD9571447 Si02
#       5
#    16  32  32  32  32
#     4  10  20  33  52  78 103 127 153 187 239 301
#     4   9  18  32  48  65  90 128 170 209 248 290
#     4   9  19  34  49  67  92 127 168 205 247 293
#     4  11  21  31  45  70  98 127 164 209 250 292
#     4  10  19  33  52  73  96 125 161 203 249 292
#
# _framework density 16.104721000000001
#
# number of rings (size 3 to 8) (size 9 to 14) (size 15 to 20)
#    0.000    2.222    1.111    4.000    0.000    5.889 
#    0.000    1.111    0.000    0.000    0.000    0.000 
#    0.000    0.000    0.000    0.000    0.000    0.000 
#
# Total GULP energy -400956.980661 kJ/mol
# GULP energy per Si atom -5568.846954 kJ/mol
# Density = 1.606807 g / cm^3
# Si number density = 16.104721 Si / 1000 Ang^3
#
#
#
# Elastic Constant Matrix: (Units=GPa)
#
#
# Indices 1 2 3 4 5 6 
#
# 1 67.9543 53.2794 50.9386 0.0000 0.0000 0.0000
# 2 53.2794 67.9545 50.9388 0.0000 0.0000 0.0000
# 3 50.9386 50.9388 108.3091 0.0000 0.0000 0.0000
# 4 0.0000 0.0000 0.0000 12.0228 0.0000 0.0000
# 5 0.0000 0.0000 0.0000 0.0000 12.0224 0.0000
# 6 0.0000 0.0000 0.0000 0.0000 0.0000 23.7120
#
#
#
# Elastic Compliance Matrix: (Units=1/GPa)
#
#
# Indices 1 2 3 4 5 6 
#
# 1 0.040891 -0.027252 -0.006414 0.000000 0.000000 0.000000
# 2 -0.027252 0.040891 -0.006415 0.000000 0.000000 0.000000
# 3 -0.006414 -0.006415 0.015266 0.000000 0.000000 0.000000
# 4 0.000000 0.000000 0.000000 0.083175 0.000000 0.000000
# 5 0.000000 0.000000 0.000000 0.000000 0.083178 0.000000
# 6 0.000000 0.000000 0.000000 0.000000 0.000000 0.042173
#
#
# Mechanical properties :
#
#
# Convention : Reuss Voigt Hill
#
# Bulk Modulus (GPa) = 59.21988 61.61460 60.41724
# Shear Modulus (GPa) = 12.77579 15.48885 14.13232
#
# Velocity S-wave (km/s) = 2.81960 3.10459 2.96552
# Velocity P-wave (km/s) = 6.88853 7.15493 7.02299
#
# Compressibility (1/GPa) = 0.01688622
#
# Stress axis : x y z
#
# Youngs Moduli (GPa) = 24.45528 24.45528 65.50343
#
# Poissons Ratio (x) = 0.66646 0.42017
# Poissons Ratio (y) = 0.66646 0.42017
# Poissons Ratio (z) = 0.15687 0.15687
#
# Static dielectric constant tensor:
#      x y z
#    x 1.555680 0.000000 0.000000 
#    y 0.000000 1.555680 0.000000 
#    z 0.000000 0.000000 1.588040 
# 
# From -- ./inp_files/8223.got.cif
#   From: 2010.05.17/outbox.cif.g08.bks.cpg/sg139_5_cif.got.tgz:8223.got - 2010.05.20 13:14:44.
