data_PCOD9571814
_publ_section_title
;
Structure prediction by ZEFSAII (Michael W. Deem and Ramdas Pophale) SiO2 
 PCOD9571814
Probable space group: I 4/M M M
;
_chemical_formula_sum "Si O2"
_cell_formula_units_Z 160
_cell_length_a 17.966537
_cell_length_b 17.966537
_cell_length_c 28.748398
_cell_angle_alpha 90.000000
_cell_angle_beta 90.000000
_cell_angle_gamma 90.000000
_cell_volume 9279.880869
_symmetry_space_group_name_H-M "I 4/M M M"
_symmetry_group_IT_number 139
_symmetry_cell_setting 'tetragonal'
loop_
_space_group_symop_operation_xyz
x,y,z
-y,x,z
-x,-y,z
y,-x,z
x,-y,-z
-x,y,-z
y,x,-z
-y,-x,-z
-x,-y,-z
y,-x,-z
x,y,-z
-y,x,-z
-x,y,z
x,-y,z
-y,-x,z
y,x,z
1/2+x,1/2+y,1/2+z
1/2-y,1/2+x,1/2+z
1/2-x,1/2-y,1/2+z
1/2+y,1/2-x,1/2+z
1/2+x,1/2-y,1/2-z
1/2-x,1/2+y,1/2-z
1/2+y,1/2+x,1/2-z
1/2-y,1/2-x,1/2-z
1/2-x,1/2-y,1/2-z
1/2+y,1/2-x,1/2-z
1/2+x,1/2+y,1/2-z
1/2-y,1/2+x,1/2-z
1/2-x,1/2+y,1/2+z
1/2+x,1/2-y,1/2+z
1/2-y,1/2-x,1/2+z
1/2+y,1/2+x,1/2+z
loop_
_atom_site_type_symbol
_atom_site_label
_atom_site_fract_x
_atom_site_fract_y
_atom_site_fract_z
Si Si1 0.159229 0.415116 0.873749
Si Si2 0.500000 0.378339 0.354538
Si Si3 0.782822 0.658636 0.554811
Si Si4 0.000000 0.415415 0.174009
Si Si5 0.136488 0.741077 0.719307
Si Si6 0.000000 0.252402 0.216517
Si Si7 0.704704 0.500000 0.445966
O O1 0.174716 0.500000 0.888433
O O2 0.172655 0.354042 0.913191
O O3 0.205736 0.395613 0.827532
O O4 0.073492 0.410637 0.857343
O O5 0.572199 0.427802 0.342351
O O6 0.500000 0.298506 0.329241
O O7 0.500000 0.361897 0.409411
O O8 0.800234 0.666355 0.500000
O O9 0.716773 0.716773 0.566116
O O10 0.752349 0.574898 0.562038
O O11 0.000000 0.500000 0.195131
O O12 0.000000 0.341766 0.206498
O O13 0.193883 0.806118 0.707871
O O14 0.180196 0.680196 0.750000
O O15 0.071070 0.767515 0.752755
O O16 0.680905 0.500000 0.500000
#
# Coordination Sequence:
#
# PCOD9571814 Si02
#       7
#    32  16  32  16  32  16  16
#     4  11  21  37  55  81 112 146 184 227 277 333
#     4  11  24  38  56  82 111 148 193 243 287 327
#     4  10  21  37  58  83 112 147 186 233 285 336
#     4  10  22  35  52  79 113 143 181 219 267 317
#     4  11  23  36  55  83 108 143 187 228 274 328
#     4  12  21  40  56  77 111 151 185 225 279 333
#     4  10  21  37  58  83 113 153 194 232 283 340
#
# _framework density 17.241600999999999
#
# number of rings (size 3 to 8) (size 9 to 14) (size 15 to 20)
#    0.000    1.300    3.000    3.600    0.000    1.600 
#    1.800    0.500    0.000    3.600    0.000    0.000 
#    0.000    0.000    0.000    4.800    0.000    0.000 
#
# Total GULP energy -446760.346180 kJ/mol
# GULP energy per Si atom -5584.504327 kJ/mol
# Density = 1.720236 g / cm^3
# Si number density = 17.241601 Si / 1000 Ang^3
#
#
#
# Elastic Constant Matrix: (Units=GPa)
#
#
# Indices 1 2 3 4 5 6 
#
# 1 90.3328 48.3764 50.0111 0.0000 0.0000 0.0000
# 2 48.3764 90.3328 50.0111 0.0000 0.0000 0.0000
# 3 50.0111 50.0111 77.3958 0.0000 0.0000 0.0000
# 4 0.0000 0.0000 0.0000 -5.3552 0.0000 0.0000
# 5 0.0000 0.0000 0.0000 0.0000 -5.3552 0.0000
# 6 0.0000 0.0000 0.0000 0.0000 0.0000 16.6561
#
#
#
# Elastic Compliance Matrix: (Units=1/GPa)
#
#
# Indices 1 2 3 4 5 6 
#
# 1 0.018667 -0.005167 -0.008723 0.000000 0.000000 0.000000
# 2 -0.005167 0.018667 -0.008723 0.000000 0.000000 0.000000
# 3 -0.008723 -0.008723 0.024194 0.000000 0.000000 0.000000
# 4 0.000000 0.000000 0.000000 -0.186733 0.000000 0.000000
# 5 0.000000 0.000000 0.000000 0.000000 -0.186733 0.000000
# 6 0.000000 0.000000 0.000000 0.000000 0.000000 0.060038
#
#
# Mechanical properties :
#
#
# Convention : Reuss Voigt Hill
#
# Bulk Modulus (GPa) = 61.34721 61.65096 61.49909
# Shear Modulus (GPa) = -24.84588 8.49998 -8.17295
#
# Velocity S-wave (km/s) = -3.80023 2.22275 -2.17957
# Velocity P-wave (km/s) = 4.05001 6.51323 5.42332
#
# Compressibility (1/GPa) = 0.01630066
#
# Stress axis : x y z
#
# Youngs Moduli (GPa) = 53.57093 53.57093 41.33309
#
# Poissons Ratio (x) = 0.27682 0.36055
# Poissons Ratio (y) = 0.27682 0.36055
# Poissons Ratio (z) = 0.46730 0.46730
#
# Static dielectric constant tensor:
#      x y z
#    x 1.582210 0.000000 0.000000 
#    y 0.000000 1.582210 0.000000 
#    z 0.000000 0.000000 1.563830 
# 
# From -- ./inp_files/13038.got.cif
#   From: 2010.05.17/outbox.cif.g08.bks.cpg/sg139_7_cif.got.tgz:13038.got - 2010.05.20 13:14:44.
