data_PCOD9571430
_publ_section_title
;
Structure prediction by ZEFSAII (Michael W. Deem and Ramdas Pophale) SiO2 
 PCOD9571430
Probable space group: I 4/M M M
;
_chemical_formula_sum "Si O2"
_cell_formula_units_Z 128
_cell_length_a 20.039117
_cell_length_b 20.039117
_cell_length_c 16.874974
_cell_angle_alpha 90.000000
_cell_angle_beta 90.000000
_cell_angle_gamma 90.000000
_cell_volume 6776.419355
_symmetry_space_group_name_H-M "I 4/M M M"
_symmetry_group_IT_number 139
_symmetry_cell_setting 'tetragonal'
loop_
_space_group_symop_operation_xyz
x,y,z
-y,x,z
-x,-y,z
y,-x,z
x,-y,-z
-x,y,-z
y,x,-z
-y,-x,-z
-x,-y,-z
y,-x,-z
x,y,-z
-y,x,-z
-x,y,z
x,-y,z
-y,-x,z
y,x,z
1/2+x,1/2+y,1/2+z
1/2-y,1/2+x,1/2+z
1/2-x,1/2-y,1/2+z
1/2+y,1/2-x,1/2+z
1/2+x,1/2-y,1/2-z
1/2-x,1/2+y,1/2-z
1/2+y,1/2+x,1/2-z
1/2-y,1/2-x,1/2-z
1/2-x,1/2-y,1/2-z
1/2+y,1/2-x,1/2-z
1/2+x,1/2+y,1/2-z
1/2-y,1/2+x,1/2-z
1/2-x,1/2+y,1/2+z
1/2+x,1/2-y,1/2+z
1/2-y,1/2-x,1/2+z
1/2+y,1/2+x,1/2+z
loop_
_atom_site_type_symbol
_atom_site_label
_atom_site_fract_x
_atom_site_fract_y
_atom_site_fract_z
Si Si1 0.573782 0.312721 0.500000
Si Si2 0.354596 0.811167 0.912104
Si Si3 0.123867 0.764538 0.161270
Si Si4 0.579207 0.924365 0.000000
Si Si5 0.690818 0.423073 0.827440
O O1 0.500000 0.342618 0.500000
O O2 0.629790 0.370211 0.500000
O O3 0.582921 0.269148 0.579366
O O4 0.299543 0.828866 0.847374
O O5 0.397293 0.747223 0.888182
O O6 0.323498 0.798888 0.000000
O O7 0.397184 0.878475 0.926555
O O8 0.172185 0.827816 0.160822
O O9 0.082692 0.773343 0.241286
O O10 0.500000 0.927705 0.000000
O O11 0.605947 0.000000 0.000000
O O12 0.672025 0.500000 0.841725
O O13 0.627821 0.372180 0.829895
#
# Coordination Sequence:
#
# PCOD9571430 Si02
#       5
#    16  32  32  16  32
#     4  10  19  32  52  78 111 152 195 238 289 348
#     4  10  21  36  62  88 117 152 194 248 302 363
#     4  10  20  36  56  82 113 146 187 240 300 357
#     4   9  19  35  55  82 115 150 186 228 286 358
#     4  11  24  40  60  87 122 163 209 259 307 360
#
# _framework density 18.889032
#
# number of rings (size 3 to 8) (size 9 to 14) (size 15 to 20)
#    0.750    1.125    1.250    3.000    0.000    6.875 
#    0.000    0.000    0.000    4.500    0.000    5.250 
#    0.000    0.000    0.000    0.000    0.000    0.000 
#
# Total GULP energy -356563.260850 kJ/mol
# GULP energy per Si atom -5571.300951 kJ/mol
# Density = 1.884604 g / cm^3
# Si number density = 18.889032 Si / 1000 Ang^3
#
#
#
# Elastic Constant Matrix: (Units=GPa)
#
#
# Indices 1 2 3 4 5 6 
#
# 1 96.9816 29.3417 24.8031 0.0000 0.0000 0.0000
# 2 29.3417 96.9831 24.8033 0.0000 0.0000 0.0000
# 3 24.8031 24.8033 54.8943 0.0000 0.0000 0.0000
# 4 0.0000 0.0000 0.0000 17.8478 0.0000 0.0000
# 5 0.0000 0.0000 0.0000 0.0000 17.8481 0.0000
# 6 0.0000 0.0000 0.0000 0.0000 0.0000 15.7119
#
#
#
# Elastic Compliance Matrix: (Units=1/GPa)
#
#
# Indices 1 2 3 4 5 6 
#
# 1 0.012204 -0.002580 -0.004348 0.000000 0.000000 0.000000
# 2 -0.002580 0.012204 -0.004348 0.000000 0.000000 0.000000
# 3 -0.004348 -0.004348 0.022146 0.000000 0.000000 0.000000
# 4 0.000000 0.000000 0.000000 0.056029 0.000000 0.000000
# 5 0.000000 0.000000 0.000000 0.000000 0.056028 0.000000
# 6 0.000000 0.000000 0.000000 0.000000 0.000000 0.063646
#
#
# Mechanical properties :
#
#
# Convention : Reuss Voigt Hill
#
# Bulk Modulus (GPa) = 41.66605 45.19503 43.43054
# Shear Modulus (GPa) = 19.77759 21.60896 20.69328
#
# Velocity S-wave (km/s) = 3.23931 3.38597 3.31345
# Velocity P-wave (km/s) = 6.00808 6.26617 6.13849
#
# Compressibility (1/GPa) = 0.02400036
#
# Stress axis : x y z
#
# Youngs Moduli (GPa) = 81.94069 81.94191 45.15431
#
# Poissons Ratio (x) = 0.21142 0.19635
# Poissons Ratio (y) = 0.21142 0.19635
# Poissons Ratio (z) = 0.35631 0.35631
#
# Static dielectric constant tensor:
#      x y z
#    x 1.659360 0.000000 0.000000 
#    y 0.000000 1.659360 0.000000 
#    z 0.000000 0.000000 1.697460 
# 
# From -- ./inp_files/8021.got.cif
#   From: 2010.05.17/outbox.cif.g08.bks.cpg/sg139_5_cif.got.tgz:8021.got - 2010.05.20 13:14:44.
