data_PCOD9571961
_publ_section_title
;
Structure prediction by ZEFSAII (Michael W. Deem and Ramdas Pophale) SiO2 
 PCOD9571961
Probable space group: I 4/M M M
;
_chemical_formula_sum "Si O2"
_cell_formula_units_Z 96
_cell_length_a 27.000000
_cell_length_b 27.000000
_cell_length_c 15.000000
_cell_angle_alpha 90.000000
_cell_angle_beta 90.000000
_cell_angle_gamma 90.000000
_cell_volume 10935.000000
_symmetry_space_group_name_H-M "I 4/M M M"
_symmetry_group_IT_number 139
_symmetry_cell_setting 'tetragonal'
loop_
_space_group_symop_operation_xyz
x,y,z
-y,x,z
-x,-y,z
y,-x,z
x,-y,-z
-x,y,-z
y,x,-z
-y,-x,-z
-x,-y,-z
y,-x,-z
x,y,-z
-y,x,-z
-x,y,z
x,-y,z
-y,-x,z
y,x,z
1/2+x,1/2+y,1/2+z
1/2-y,1/2+x,1/2+z
1/2-x,1/2-y,1/2+z
1/2+y,1/2-x,1/2+z
1/2+x,1/2-y,1/2-z
1/2-x,1/2+y,1/2-z
1/2+y,1/2+x,1/2-z
1/2-y,1/2-x,1/2-z
1/2-x,1/2-y,1/2-z
1/2+y,1/2-x,1/2-z
1/2+x,1/2+y,1/2-z
1/2-y,1/2+x,1/2-z
1/2-x,1/2+y,1/2+z
1/2+x,1/2-y,1/2+z
1/2-y,1/2-x,1/2+z
1/2+y,1/2+x,1/2+z
loop_
_atom_site_type_symbol
_atom_site_label
_atom_site_fract_x
_atom_site_fract_y
_atom_site_fract_z
Si Si1 0.058313 0.555568 0.000000
Si Si2 0.055996 0.290870 0.601947
Si Si3 0.803779 0.803779 0.895130
Si Si4 0.887042 0.385019 0.148339
Si Si5 0.557210 0.708952 0.252274
Si Si6 0.943553 0.056448 0.106668
Si Si7 0.381723 0.229691 0.605292
Si Si8 0.374561 0.374561 0.281676
O O1 0.076163 0.586069 0.084697
O O2 0.079695 0.500000 0.000000
O O3 0.000000 0.552238 0.000000
O O4 0.060880 0.274438 0.500000
O O5 0.095511 0.332908 0.622179
O O6 0.061230 0.246819 0.671047
O O7 0.000000 0.311402 0.613250
O O8 0.748966 0.825153 0.878361
O O9 0.838295 0.838295 0.835463
O O10 0.813024 0.813024 0.000000
O O11 0.897160 0.397160 0.250000
O O12 0.889153 0.326453 0.134159
O O13 0.500000 0.698271 0.270411
O O14 0.582007 0.735490 0.337771
O O15 0.587636 0.659907 0.229632
O O16 0.905866 0.094135 0.148402
O O17 0.000000 0.067655 0.133485
O O18 0.941438 0.058563 0.000000
O O19 0.391664 0.233916 0.500000
#
# Coordination Sequence:
#
# PCOD9571961 Si02
#       8
#    16  32  16  32  32  16  32  16
#     4  11  26  44  60  83 114 150 186 223 276 332
#     4  10  20  37  60  80 104 142 185 229 278 330
#     4   8  17  31  50  69 104 145 179 216 267 318
#     4  12  22  37  61  87 114 142 184 227 275 329
#     4  10  21  35  54  82 110 144 189 229 276 335
#     4   9  17  28  45  72 106 148 198 238 272 331
#     4  10  19  35  53  81 112 145 182 226 273 329
#     4  10  18  32  50  73 110 146 177 231 285 327
#
# _framework density 8.7791499999999996
#
# number of rings (size 3 to 8) (size 9 to 14) (size 15 to 20)
#    0.000    1.833    3.333    1.500    0.000    3.000 
#    0.000    2.500    0.000    0.000    0.000    0.000 
#    0.000    0.000    0.000   10.167    0.000    0.000 
#
# Total GULP energy -534939.436437 kJ/mol
# GULP energy per Si atom -5572.285796 kJ/mol
# Density = 0.875917 g / cm^3
# Si number density = 8.779150 Si / 1000 Ang^3
#
#
#
# Elastic Constant Matrix: (Units=GPa)
#
#
# Indices 1 2 3 4 5 6 
#
# 1 70.5425 53.5948 28.9848 0.0000 0.0000 0.0000
# 2 53.5948 70.5434 28.9851 0.0000 0.0000 0.0000
# 3 28.9848 28.9851 91.4337 0.0000 0.0000 0.0000
# 4 0.0000 0.0000 0.0000 12.3631 0.0000 0.0000
# 5 0.0000 0.0000 0.0000 0.0000 12.3632 0.0000
# 6 0.0000 0.0000 0.0000 0.0000 0.0000 24.5681
#
#
#
# Elastic Compliance Matrix: (Units=1/GPa)
#
#
# Indices 1 2 3 4 5 6 
#
# 1 0.034230 -0.024774 -0.002997 0.000000 0.000000 0.000000
# 2 -0.024774 0.034229 -0.002997 0.000000 0.000000 0.000000
# 3 -0.002997 -0.002997 0.012837 0.000000 0.000000 0.000000
# 4 0.000000 0.000000 0.000000 0.080886 0.000000 0.000000
# 5 0.000000 0.000000 0.000000 0.000000 0.080885 0.000000
# 6 0.000000 0.000000 0.000000 0.000000 0.000000 0.040703
#
#
# Mechanical properties :
#
#
# Convention : Reuss Voigt Hill
#
# Bulk Modulus (GPa) = 50.61159 50.62767 50.61963
# Shear Modulus (GPa) = 14.20883 17.92255 16.06569
#
# Velocity S-wave (km/s) = 2.84780 3.19838 3.02816
# Velocity P-wave (km/s) = 6.30085 6.52197 6.41236
#
# Compressibility (1/GPa) = 0.01975832
#
# Stress axis : x y z
#
# Youngs Moduli (GPa) = 29.21447 29.21480 77.89829
#
# Poissons Ratio (x) = 0.72377 0.23349
# Poissons Ratio (y) = 0.72376 0.23349
# Poissons Ratio (z) = 0.08757 0.08757
#
# Static dielectric constant tensor:
#      x y z
#    x 1.608210 0.000000 0.000000 
#    y 0.000000 1.608200 0.000000 
#    z 0.000000 0.000000 1.570930 
# 
# From -- ./inp_files/6556.got.cif
#   From: 2010.05.17/outbox.ucp.g08.bks.cvg/sg139_4_cif.got.tgz:6556.got - 2010.06.11 11:42:03.
