data_PCOD9572499
_publ_section_title
;
Structure prediction by ZEFSAII (Michael W. Deem and Ramdas Pophale) SiO2 
 PCOD9572499
Probable space group: I 4/M C M
;
_chemical_formula_sum "Si O2"
_cell_formula_units_Z 168
_cell_length_a 23.144698
_cell_length_b 23.144698
_cell_length_c 15.684053
_cell_angle_alpha 90.000000
_cell_angle_beta 90.000000
_cell_angle_gamma 90.000000
_cell_volume 8401.587173
_symmetry_space_group_name_H-M "I 4/M C M"
_symmetry_group_IT_number 140
_symmetry_cell_setting 'tetragonal'
loop_
_space_group_symop_operation_xyz
x,y,z
-y,x,z
-x,-y,z
y,-x,z
x,-y,1/2-z
-x,y,1/2-z
y,x,1/2-z
-y,-x,1/2-z
-x,-y,-z
y,-x,-z
x,y,-z
-y,x,-z
-x,y,1/2+z
x,-y,1/2+z
-y,-x,1/2+z
y,x,1/2+z
1/2+x,1/2+y,1/2+z
1/2-y,1/2+x,1/2+z
1/2-x,1/2-y,1/2+z
1/2+y,1/2-x,1/2+z
1/2+x,1/2-y,-z
1/2-x,1/2+y,-z
1/2+y,1/2+x,-z
1/2-y,1/2-x,-z
1/2-x,1/2-y,1/2-z
1/2+y,1/2-x,1/2-z
1/2+x,1/2+y,1/2-z
1/2-y,1/2+x,1/2-z
1/2-x,1/2+y,z
1/2+x,1/2-y,z
1/2-y,1/2-x,z
1/2+y,1/2+x,z
loop_
_atom_site_type_symbol
_atom_site_label
_atom_site_fract_x
_atom_site_fract_y
_atom_site_fract_z
Si Si1 0.405953 0.996238 0.000000
Si Si2 0.400408 0.754798 0.136749
Si Si3 0.053695 0.918811 0.000000
Si Si4 0.485797 0.177518 0.843530
Si Si5 0.628134 0.366080 0.647324
Si Si6 0.267841 0.861602 0.671688
Si Si7 0.838312 0.338312 0.500000
O O1 0.368345 0.003357 0.916456
O O2 0.456691 0.043310 0.000000
O O3 0.432187 0.932187 0.000000
O O4 0.467581 0.771261 0.147824
O O5 0.394618 0.687661 0.115125
O O6 0.366928 0.761976 0.226300
O O7 0.372232 0.799781 0.072896
O O8 0.077474 0.887610 0.085467
O O9 0.984495 0.922630 0.000000
O O10 0.500000 0.152343 0.750000
O O11 0.420607 0.199427 0.852553
O O12 0.621249 0.378752 0.750000
O O13 0.637137 0.297137 0.637575
O O14 0.305957 0.805957 0.647943
#
# Coordination Sequence:
#
# PCOD9572499 Si02
#       7
#    16  32  16  32  32  32   8
#     4  11  25  41  59  87 119 165 223 271 328 391
#     4  10  22  36  63  99 129 171 219 271 330 396
#     4  11  27  48  70 101 136 173 229 286 338 414
#     4  10  23  40  63  92 127 170 217 274 328 387
#     4  10  24  44  71 100 138 182 216 278 335 410
#     4  10  21  41  65  94 135 178 223 271 333 400
#     4  12  20  34  62  92 135 168 214 282 327 392
#
# _framework density 19.996221999999999
#
# number of rings (size 3 to 8) (size 9 to 14) (size 15 to 20)
#    0.000    1.714    0.952    1.714    6.667    4.190 
#    0.000    2.857    0.000    0.000    0.000    0.000 
#    0.000    0.000    0.000    0.000    0.000    0.000 
#
# Total GULP energy -468272.151051 kJ/mol
# GULP energy per Si atom -5574.668465 kJ/mol
# Density = 1.995071 g / cm^3
# Si number density = 19.996222 Si / 1000 Ang^3
#
#
#
# Elastic Constant Matrix: (Units=GPa)
#
#
# Indices 1 2 3 4 5 6 
#
# 1 84.8061 33.8490 48.0488 0.0000 0.0000 0.0000
# 2 33.8490 84.8079 48.0496 0.0000 0.0000 0.0000
# 3 48.0488 48.0496 97.5516 0.0000 0.0000 0.0000
# 4 0.0000 0.0000 0.0000 38.8070 0.0000 0.0000
# 5 0.0000 0.0000 0.0000 0.0000 38.8075 0.0000
# 6 0.0000 0.0000 0.0000 0.0000 0.0000 17.4750
#
#
#
# Elastic Compliance Matrix: (Units=1/GPa)
#
#
# Indices 1 2 3 4 5 6 
#
# 1 0.016823 -0.002802 -0.006906 0.000000 0.000000 0.000000
# 2 -0.002802 0.016822 -0.006906 0.000000 0.000000 0.000000
# 3 -0.006906 -0.006906 0.017054 0.000000 0.000000 0.000000
# 4 0.000000 0.000000 0.000000 0.025769 0.000000 0.000000
# 5 0.000000 0.000000 0.000000 0.000000 0.025768 0.000000
# 6 0.000000 0.000000 0.000000 0.000000 0.000000 0.057225
#
#
# Mechanical properties :
#
#
# Convention : Reuss Voigt Hill
#
# Bulk Modulus (GPa) = 57.23505 58.56226 57.89865
# Shear Modulus (GPa) = 25.18746 28.16577 26.67662
#
# Velocity S-wave (km/s) = 3.55295 3.75714 3.65647
# Velocity P-wave (km/s) = 6.74658 6.94059 6.84427
#
# Compressibility (1/GPa) = 0.01747181
#
# Stress axis : x y z
#
# Youngs Moduli (GPa) = 59.44402 59.44499 58.63694
#
# Poissons Ratio (x) = 0.16654 0.40494
# Poissons Ratio (y) = 0.16654 0.40495
# Poissons Ratio (z) = 0.41052 0.41053
#
# Static dielectric constant tensor:
#      x y z
#    x 1.728640 0.000000 0.000000 
#    y 0.000000 1.728640 0.000000 
#    z 0.000000 0.000000 1.625000 
# 
# From -- ./inp_files/5006.got.cif
#   From: 2010.05.17/outbox.cif.g08.bks.cpg/sg140_3_cif.got.tgz:5006.got - 2010.06.21 00:45:31.
