data_PCOD9572425
_publ_section_title
;
Structure prediction by ZEFSAII (Michael W. Deem and Ramdas Pophale) SiO2 
 PCOD9572425
Probable space group: I 4/M C M
;
_chemical_formula_sum "Si O2"
_cell_formula_units_Z 160
_cell_length_a 31.100772
_cell_length_b 31.100772
_cell_length_c 9.587436
_cell_angle_alpha 90.000000
_cell_angle_beta 90.000000
_cell_angle_gamma 90.000000
_cell_volume 9273.524353
_symmetry_space_group_name_H-M "I 4/M C M"
_symmetry_group_IT_number 140
_symmetry_cell_setting 'tetragonal'
loop_
_space_group_symop_operation_xyz
x,y,z
-y,x,z
-x,-y,z
y,-x,z
x,-y,1/2-z
-x,y,1/2-z
y,x,1/2-z
-y,-x,1/2-z
-x,-y,-z
y,-x,-z
x,y,-z
-y,x,-z
-x,y,1/2+z
x,-y,1/2+z
-y,-x,1/2+z
y,x,1/2+z
1/2+x,1/2+y,1/2+z
1/2-y,1/2+x,1/2+z
1/2-x,1/2-y,1/2+z
1/2+y,1/2-x,1/2+z
1/2+x,1/2-y,-z
1/2-x,1/2+y,-z
1/2+y,1/2+x,-z
1/2-y,1/2-x,-z
1/2-x,1/2-y,1/2-z
1/2+y,1/2-x,1/2-z
1/2+x,1/2+y,1/2-z
1/2-y,1/2+x,1/2-z
1/2-x,1/2+y,z
1/2+x,1/2-y,z
1/2-y,1/2-x,z
1/2+y,1/2+x,z
loop_
_atom_site_type_symbol
_atom_site_label
_atom_site_fract_x
_atom_site_fract_y
_atom_site_fract_z
Si Si1 0.723141 0.843108 0.662847
Si Si2 0.613614 0.955242 0.000000
Si Si3 0.542766 0.277135 0.334395
Si Si4 0.629463 0.054976 0.000000
Si Si5 0.181775 0.426595 0.726082
Si Si6 0.816132 0.122920 0.832696
O O1 0.714655 0.854844 0.500000
O O2 0.703446 0.796555 0.687441
O O3 0.697337 0.877349 0.756664
O O4 0.773782 0.847124 0.681304
O O5 0.642567 0.937545 0.874091
O O6 0.610319 0.006783 0.000000
O O7 0.567772 0.932229 0.000000
O O8 0.500000 0.288180 0.250000
O O9 0.541795 0.287115 0.500000
O O10 0.549779 0.225587 0.318741
O O11 0.580527 0.301311 0.250594
O O12 0.661855 0.059297 0.871590
O O13 0.592562 0.092562 0.000000
O O14 0.854962 0.145039 0.750000
O O15 0.823668 0.116423 0.000000
#
# Coordination Sequence:
#
# PCOD9572425 Si02
#       6
#    32  16  32  16  32  32
#     4   9  17  32  54  76 100 137 183 225 267 326
#     4  12  24  37  52  76 101 125 167 227 288 352
#     4  11  22  37  60  88 116 144 186 234 282 334
#     4  12  24  39  56  70  93 135 175 219 284 360
#     4  11  22  36  56  79 104 132 171 226 290 346
#     4  10  21  36  55  80 118 159 194 229 276 326
#
# _framework density 17.253419999999998
#
# number of rings (size 3 to 8) (size 9 to 14) (size 15 to 20)
#    0.000    1.400    2.000    4.800    2.800    0.600 
#    0.000    0.000    0.000    2.400    0.000    0.000 
#    0.000    0.400    0.000    4.000    0.000    2.400 
#
# Total GULP energy -446079.176195 kJ/mol
# GULP energy per Si atom -5575.989702 kJ/mol
# Density = 1.721415 g / cm^3
# Si number density = 17.253420 Si / 1000 Ang^3
#
#
#
# Elastic Constant Matrix: (Units=GPa)
#
#
# Indices 1 2 3 4 5 6 
#
# 1 60.6062 55.3690 39.8634 0.0000 0.0000 0.0000
# 2 55.3690 60.6132 39.8660 0.0000 0.0000 0.0000
# 3 39.8634 39.8660 147.7360 0.0000 0.0000 0.0000
# 4 0.0000 0.0000 0.0000 -8.3296 0.0000 0.0000
# 5 0.0000 0.0000 0.0000 0.0000 -8.4119 0.0000
# 6 0.0000 0.0000 0.0000 0.0000 0.0000 21.4737
#
#
#
# Elastic Compliance Matrix: (Units=1/GPa)
#
#
# Indices 1 2 3 4 5 6 
#
# 1 0.100706 -0.090115 -0.002856 0.000000 0.000000 0.000000
# 2 -0.090115 0.100695 -0.002857 0.000000 0.000000 0.000000
# 3 -0.002856 -0.002857 0.008310 0.000000 0.000000 0.000000
# 4 0.000000 0.000000 0.000000 -0.120053 0.000000 0.000000
# 5 0.000000 0.000000 0.000000 0.000000 -0.118879 0.000000
# 6 0.000000 0.000000 0.000000 0.000000 0.000000 0.046569
#
#
# Mechanical properties :
#
#
# Convention : Reuss Voigt Hill
#
# Bulk Modulus (GPa) = 55.38209 59.90580 57.64394
# Shear Modulus (GPa) = 23.25344 9.87023 16.56183
#
# Velocity S-wave (km/s) = 3.67517 2.39440 3.10161
# Velocity P-wave (km/s) = 7.08364 6.51465 6.80510
#
# Compressibility (1/GPa) = 0.01805638
#
# Stress axis : x y z
#
# Youngs Moduli (GPa) = 9.92987 9.93099 120.33109
#
# Poissons Ratio (x) = 0.89493 0.34371
# Poissons Ratio (y) = 0.89483 0.34373
# Poissons Ratio (z) = 0.02836 0.02837
#
# Static dielectric constant tensor:
#      x y z
#    x 1.580670 0.000000 0.000000 
#    y 0.000000 1.580670 0.000000 
#    z 0.000000 0.000000 1.549770 
# 
# From -- ./inp_files/1784.got.cif
#   From: 2010.05.17/outbox.cif.g08.bks.cpg/sg140_1_cif.got.tgz:1784.got - 2010.06.21 00:45:31.
