data_PCOD9572207
_publ_section_title
;
Structure prediction by ZEFSAII (Michael W. Deem and Ramdas Pophale) SiO2 
 PCOD9572207
Probable space group: I 4/M C M
;
_chemical_formula_sum "Si O2"
_cell_formula_units_Z 160
_cell_length_a 24.129347
_cell_length_b 24.129347
_cell_length_c 15.018856
_cell_angle_alpha 90.000000
_cell_angle_beta 90.000000
_cell_angle_gamma 90.000000
_cell_volume 8744.359242
_symmetry_space_group_name_H-M "I 4/M C M"
_symmetry_group_IT_number 140
_symmetry_cell_setting 'tetragonal'
loop_
_space_group_symop_operation_xyz
x,y,z
-y,x,z
-x,-y,z
y,-x,z
x,-y,1/2-z
-x,y,1/2-z
y,x,1/2-z
-y,-x,1/2-z
-x,-y,-z
y,-x,-z
x,y,-z
-y,x,-z
-x,y,1/2+z
x,-y,1/2+z
-y,-x,1/2+z
y,x,1/2+z
1/2+x,1/2+y,1/2+z
1/2-y,1/2+x,1/2+z
1/2-x,1/2-y,1/2+z
1/2+y,1/2-x,1/2+z
1/2+x,1/2-y,-z
1/2-x,1/2+y,-z
1/2+y,1/2+x,-z
1/2-y,1/2-x,-z
1/2-x,1/2-y,1/2-z
1/2+y,1/2-x,1/2-z
1/2+x,1/2+y,1/2-z
1/2-y,1/2+x,1/2-z
1/2-x,1/2+y,z
1/2+x,1/2-y,z
1/2-y,1/2-x,z
1/2+y,1/2+x,z
loop_
_atom_site_type_symbol
_atom_site_label
_atom_site_fract_x
_atom_site_fract_y
_atom_site_fract_z
Si Si1 0.151241 0.438047 0.000000
Si Si2 0.589647 0.245773 0.865402
Si Si3 0.033674 0.829773 0.500000
Si Si4 0.170631 0.180901 0.350497
Si Si5 0.407140 0.365257 0.000000
Si Si6 0.707749 0.118785 0.323064
Si Si7 0.338263 0.068008 0.000000
O O1 0.188708 0.419409 0.916516
O O2 0.093622 0.406379 0.000000
O O3 0.146048 0.504009 0.000000
O O4 0.651110 0.272432 0.878933
O O5 0.585191 0.232910 0.760402
O O6 0.550201 0.291135 0.914502
O O7 0.071879 0.884667 0.500000
O O8 0.970960 0.849644 0.500000
O O9 0.160671 0.160671 0.250000
O O10 0.122360 0.161151 0.414599
O O11 0.165392 0.246631 0.347345
O O12 0.651643 0.151643 0.297497
O O13 0.695873 0.082797 0.410714
O O14 0.391144 0.108857 0.000000
#
# Coordination Sequence:
#
# PCOD9572207 Si02
#       7
#    16  32  16  32  16  32  16
#     4  11  23  38  57  80 112 150 190 240 296 343
#     4   9  20  36  54  88 116 143 182 228 289 349
#     4   9  20  36  59  84 111 155 193 236 287 326
#     4   9  19  34  54  85 118 149 184 228 289 348
#     4  10  19  37  54  77 120 148 201 245 270 333
#     4  10  20  36  59  84 115 151 184 231 287 350
#     4  10  24  41  56  83 111 145 204 245 281 342
#
# _framework density 18.297509000000002
#
# number of rings (size 3 to 8) (size 9 to 14) (size 15 to 20)
#    0.000    2.400    0.000    1.800    5.600    5.600 
#    3.600    4.000    0.000    0.000    0.000   14.000 
#    0.000    0.000    0.000    0.000    0.000    1.600 
#
# Total GULP energy -445830.071371 kJ/mol
# GULP energy per Si atom -5572.875892 kJ/mol
# Density = 1.825586 g / cm^3
# Si number density = 18.297509 Si / 1000 Ang^3
#
#
#
# Elastic Constant Matrix: (Units=GPa)
#
#
# Indices 1 2 3 4 5 6 
#
# 1 279.1881 -126.6066 73.3409 0.0000 0.0000 0.0000
# 2 -126.6066 279.2964 73.3406 0.0000 0.0000 0.0000
# 3 73.3409 73.3406 125.8916 0.0000 0.0000 0.0000
# 4 0.0000 0.0000 0.0000 5.7911 0.0000 0.0000
# 5 0.0000 0.0000 0.0000 0.0000 5.7931 0.0000
# 6 0.0000 0.0000 0.0000 0.0000 0.0000 9.1856
#
#
#
# Elastic Compliance Matrix: (Units=1/GPa)
#
#
# Indices 1 2 3 4 5 6 
#
# 1 0.008676 0.006210 -0.008673 0.000000 0.000000 0.000000
# 2 0.006210 0.008672 -0.008670 0.000000 0.000000 0.000000
# 3 -0.008673 -0.008670 0.018047 0.000000 0.000000 0.000000
# 4 0.000000 0.000000 0.000000 0.172678 0.000000 0.000000
# 5 0.000000 0.000000 0.000000 0.000000 0.172621 0.000000
# 6 0.000000 0.000000 0.000000 0.000000 0.000000 0.108867
#
#
# Mechanical properties :
#
#
# Convention : Reuss Voigt Hill
#
# Bulk Modulus (GPa) = 76.15819 80.50287 78.33053
# Shear Modulus (GPa) = 9.68612 48.44069 29.06341
#
# Velocity S-wave (km/s) = 2.30330 5.15086 3.98977
# Velocity P-wave (km/s) = 6.98470 8.91445 8.00792
#
# Compressibility (1/GPa) = 0.01313056
#
# Stress axis : x y z
#
# Youngs Moduli (GPa) = 115.25642 115.30935 55.41176
#
# Poissons Ratio (x) = -0.71611 0.48056
# Poissons Ratio (y) = -0.71578 0.48043
# Poissons Ratio (z) = 0.99956 0.99976
#
# Static dielectric constant tensor:
#      x y z
#    x 1.630870 0.000000 0.000000 
#    y 0.000000 1.630870 0.000000 
#    z 0.000000 0.000000 1.653950 
# 
# From -- ./inp_files/4869.got.cif
#   From: 2010.05.17/outbox.cif.g08.bks.cpg/sg140_3_cif.got.tgz:4869.got - 2010.06.21 00:45:31.
