data_PCOD9572644
_publ_section_title
;
Structure prediction by ZEFSAII (Michael W. Deem and Ramdas Pophale) SiO2 
 PCOD9572644
Probable space group: I 4/M C M
;
_chemical_formula_sum "Si O2"
_cell_formula_units_Z 112
_cell_length_a 14.958914
_cell_length_b 14.958914
_cell_length_c 24.222366
_cell_angle_alpha 90.000000
_cell_angle_beta 90.000000
_cell_angle_gamma 90.000000
_cell_volume 5420.217235
_symmetry_space_group_name_H-M "I 4/M C M"
_symmetry_group_IT_number 140
_symmetry_cell_setting 'tetragonal'
loop_
_space_group_symop_operation_xyz
x,y,z
-y,x,z
-x,-y,z
y,-x,z
x,-y,1/2-z
-x,y,1/2-z
y,x,1/2-z
-y,-x,1/2-z
-x,-y,-z
y,-x,-z
x,y,-z
-y,x,-z
-x,y,1/2+z
x,-y,1/2+z
-y,-x,1/2+z
y,x,1/2+z
1/2+x,1/2+y,1/2+z
1/2-y,1/2+x,1/2+z
1/2-x,1/2-y,1/2+z
1/2+y,1/2-x,1/2+z
1/2+x,1/2-y,-z
1/2-x,1/2+y,-z
1/2+y,1/2+x,-z
1/2-y,1/2-x,-z
1/2-x,1/2-y,1/2-z
1/2+y,1/2-x,1/2-z
1/2+x,1/2+y,1/2-z
1/2-y,1/2+x,1/2-z
1/2-x,1/2+y,z
1/2+x,1/2-y,z
1/2-y,1/2-x,z
1/2+y,1/2+x,z
loop_
_atom_site_type_symbol
_atom_site_label
_atom_site_fract_x
_atom_site_fract_y
_atom_site_fract_z
Si Si1 0.741158 0.096698 0.344354
Si Si2 0.017438 0.334656 0.938994
Si Si3 0.166946 0.182532 0.940295
Si Si4 0.500000 0.652987 0.250000
O O1 0.682794 0.182794 0.323156
O O2 0.822697 0.127659 0.384347
O O3 0.780381 0.028346 0.299672
O O4 0.678485 0.045809 0.387765
O O5 0.077359 0.422642 0.934588
O O6 0.085341 0.250968 0.937589
O O7 0.975090 0.334690 0.000000
O O8 0.255848 0.244153 0.941467
O O9 0.160840 0.134519 0.000000
O O10 0.414276 0.585725 0.250000
#
# Coordination Sequence:
#
# PCOD9572644 Si02
#       4
#    32  32  32  16
#     4  11  22  36  58  84 111 148 195 243 287 341
#     4   9  18  33  54  83 120 155 184 225 286 348
#     4   8  15  30  53  81 112 146 185 228 278 343
#     4  11  26  46  64  83 112 152 198 249 300 344
#
# _framework density 20.66338
#
# number of rings (size 3 to 8) (size 9 to 14) (size 15 to 20)
#    0.000    2.429    0.000    4.286    0.000    4.000 
#    0.000    1.429    0.000    0.000    0.000   12.000 
#    0.000    0.000    0.000    0.000    0.000    0.000 
#
# Total GULP energy -311969.694632 kJ/mol
# GULP energy per Si atom -5570.887404 kJ/mol
# Density = 2.061635 g / cm^3
# Si number density = 20.663380 Si / 1000 Ang^3
#
#
#
# Elastic Constant Matrix: (Units=GPa)
#
#
# Indices 1 2 3 4 5 6 
#
# 1 79.9248 40.4790 59.7196 0.0000 0.0000 0.0000
# 2 40.4790 79.9244 59.7197 0.0000 0.0000 0.0000
# 3 59.7196 59.7197 159.4890 0.0000 0.0000 0.0000
# 4 0.0000 0.0000 0.0000 -248.0583 0.0000 0.0000
# 5 0.0000 0.0000 0.0000 0.0000 -249.0089 0.0000
# 6 0.0000 0.0000 0.0000 0.0000 0.0000 39.0663
#
#
#
# Elastic Compliance Matrix: (Units=1/GPa)
#
#
# Indices 1 2 3 4 5 6 
#
# 1 0.019282 -0.006069 -0.004948 0.000000 0.000000 0.000000
# 2 -0.006069 0.019282 -0.004948 0.000000 0.000000 0.000000
# 3 -0.004948 -0.004948 0.009975 0.000000 0.000000 0.000000
# 4 0.000000 0.000000 0.000000 -0.004031 0.000000 0.000000
# 5 0.000000 0.000000 0.000000 0.000000 -0.004016 0.000000
# 6 0.000000 0.000000 0.000000 0.000000 0.000000 0.025597
#
#
# Mechanical properties :
#
#
# Convention : Reuss Voigt Hill
#
# Bulk Modulus (GPa) = 60.19946 71.01941 65.60944
# Shear Modulus (GPa) = 48.28296 -80.97218 -16.34461
#
# Velocity S-wave (km/s) = 4.83913 -6.26669 -2.81551
# Velocity P-wave (km/s) = 7.77300 4.23291 4.60988
#
# Compressibility (1/GPa) = 0.01661144
#
# Stress axis : x y z
#
# Youngs Moduli (GPa) = 51.86095 51.86052 100.24763
#
# Poissons Ratio (x) = 0.31474 0.49599
# Poissons Ratio (y) = 0.31474 0.49600
# Poissons Ratio (z) = 0.25659 0.25659
#
# Static dielectric constant tensor:
#      x y z
#    x 1.761760 0.000000 0.000000 
#    y 0.000000 1.761760 0.000000 
#    z 0.000000 0.000000 1.763900 
# 
# From -- ./inp_files/9070.got.cif
#   From: 2010.05.17/outbox.cif.g08.bks.cpg/sg140_5_cif.got.tgz:9070.got - 2010.06.21 00:45:31.
