data_PCOD9572592
_publ_section_title
;
Structure prediction by ZEFSAII (Michael W. Deem and Ramdas Pophale) SiO2 
 PCOD9572592
Probable space group: I 4/M C M
;
_chemical_formula_sum "Si O2"
_cell_formula_units_Z 160
_cell_length_a 18.581086
_cell_length_b 18.581086
_cell_length_c 18.106788
_cell_angle_alpha 90.000000
_cell_angle_beta 90.000000
_cell_angle_gamma 90.000000
_cell_volume 6251.490903
_symmetry_space_group_name_H-M "I 4/M C M"
_symmetry_group_IT_number 140
_symmetry_cell_setting 'tetragonal'
loop_
_space_group_symop_operation_xyz
x,y,z
-y,x,z
-x,-y,z
y,-x,z
x,-y,1/2-z
-x,y,1/2-z
y,x,1/2-z
-y,-x,1/2-z
-x,-y,-z
y,-x,-z
x,y,-z
-y,x,-z
-x,y,1/2+z
x,-y,1/2+z
-y,-x,1/2+z
y,x,1/2+z
1/2+x,1/2+y,1/2+z
1/2-y,1/2+x,1/2+z
1/2-x,1/2-y,1/2+z
1/2+y,1/2-x,1/2+z
1/2+x,1/2-y,-z
1/2-x,1/2+y,-z
1/2+y,1/2+x,-z
1/2-y,1/2-x,-z
1/2-x,1/2-y,1/2-z
1/2+y,1/2-x,1/2-z
1/2+x,1/2+y,1/2-z
1/2-y,1/2+x,1/2-z
1/2-x,1/2+y,z
1/2+x,1/2-y,z
1/2-y,1/2-x,z
1/2+y,1/2+x,z
loop_
_atom_site_type_symbol
_atom_site_label
_atom_site_fract_x
_atom_site_fract_y
_atom_site_fract_z
Si Si1 0.338211 0.277989 0.420292
Si Si2 0.908536 0.258450 0.883619
Si Si3 0.485600 0.386289 0.911416
Si Si4 0.000780 0.387416 0.869043
Si Si5 0.241600 0.427654 0.219534
O O1 0.377624 0.285707 0.500000
O O2 0.298554 0.201447 0.420119
O O3 0.276508 0.338661 0.419462
O O4 0.382497 0.279298 0.344409
O O5 0.966577 0.194707 0.892759
O O6 0.888425 0.270255 0.797376
O O7 0.948564 0.330541 0.910819
O O8 0.560016 0.421941 0.885489
O O9 0.485426 0.390643 0.000000
O O10 0.061217 0.438784 0.906166
O O11 0.043944 0.333361 0.815479
O O12 0.944188 0.444188 0.834224
O O13 0.280293 0.500000 0.250000
#
# Coordination Sequence:
#
# PCOD9572592 Si02
#       5
#    32  32  32  32  32
#     4  11  25  46  72 105 151 206 262 324 407 497
#     4  11  23  39  71 113 151 192 255 326 391 466
#     4   9  20  41  70 105 148 200 253 313 391 475
#     4  10  23  45  73 108 152 202 256 319 396 475
#     4  10  24  43  69 109 149 196 260 325 397 461
#
# _framework density 25.593895
#
# number of rings (size 3 to 8) (size 9 to 14) (size 15 to 20)
#    0.000    1.800    0.000    3.000    5.600   12.800 
#    0.000   13.000    0.000    6.600    0.000   15.400 
#    0.000    0.000    0.000    0.000    0.000    0.000 
#
# Total GULP energy -446440.574421 kJ/mol
# GULP energy per Si atom -5580.507180 kJ/mol
# Density = 2.553564 g / cm^3
# Si number density = 25.593895 Si / 1000 Ang^3
#
#
#
# Elastic Constant Matrix: (Units=GPa)
#
#
# Indices 1 2 3 4 5 6 
#
# 1 138.6264 68.2980 34.3197 0.0000 0.0000 0.0000
# 2 68.2980 138.6264 34.3197 0.0000 0.0000 0.0000
# 3 34.3197 34.3197 144.5690 0.0000 0.0000 0.0000
# 4 0.0000 0.0000 0.0000 13.1146 0.0000 0.0000
# 5 0.0000 0.0000 0.0000 0.0000 13.1146 0.0000
# 6 0.0000 0.0000 0.0000 0.0000 0.0000 66.9128
#
#
#
# Elastic Compliance Matrix: (Units=1/GPa)
#
#
# Indices 1 2 3 4 5 6 
#
# 1 0.009732 -0.004487 -0.001245 0.000000 0.000000 0.000000
# 2 -0.004487 0.009732 -0.001245 0.000000 0.000000 0.000000
# 3 -0.001245 -0.001245 0.007508 0.000000 0.000000 0.000000
# 4 0.000000 0.000000 0.000000 0.076251 0.000000 0.000000
# 5 0.000000 0.000000 0.000000 0.000000 0.076251 0.000000
# 6 0.000000 0.000000 0.000000 0.000000 0.000000 0.014945
#
#
# Mechanical properties :
#
#
# Convention : Reuss Voigt Hill
#
# Bulk Modulus (GPa) = 76.81277 77.29960 77.05618
# Shear Modulus (GPa) = 23.50578 37.62070 30.56324
#
# Velocity S-wave (km/s) = 3.03382 3.83810 3.45941
# Velocity P-wave (km/s) = 6.50764 7.06465 6.79186
#
# Compressibility (1/GPa) = 0.01301867
#
# Stress axis : x y z
#
# Youngs Moduli (GPa) = 102.74970 102.74970 133.18470
#
# Poissons Ratio (x) = 0.46100 0.16586
# Poissons Ratio (y) = 0.46100 0.16586
# Poissons Ratio (z) = 0.12796 0.12796
#
# Static dielectric constant tensor:
#      x y z
#    x 2.077040 0.000000 0.000000 
#    y 0.000000 2.077040 0.000000 
#    z 0.000000 0.000000 2.029110 
# 
# From -- ./inp_files/6869.got.cif
#   From: 2010.05.17/outbox.cif.g08.bks.cpg/sg140_4_cif.got.tgz:6869.got - 2010.06.21 00:45:31.
