data_PCOD9572610
_publ_section_title
;
Structure prediction by ZEFSAII (Michael W. Deem and Ramdas Pophale) SiO2 
 PCOD9572610
Probable space group: I 4/M C M
;
_chemical_formula_sum "Si O2"
_cell_formula_units_Z 112
_cell_length_a 19.620256
_cell_length_b 19.620256
_cell_length_c 16.364629
_cell_angle_alpha 90.000000
_cell_angle_beta 90.000000
_cell_angle_gamma 90.000000
_cell_volume 6299.636683
_symmetry_space_group_name_H-M "I 4/M C M"
_symmetry_group_IT_number 140
_symmetry_cell_setting 'tetragonal'
loop_
_space_group_symop_operation_xyz
x,y,z
-y,x,z
-x,-y,z
y,-x,z
x,-y,1/2-z
-x,y,1/2-z
y,x,1/2-z
-y,-x,1/2-z
-x,-y,-z
y,-x,-z
x,y,-z
-y,x,-z
-x,y,1/2+z
x,-y,1/2+z
-y,-x,1/2+z
y,x,1/2+z
1/2+x,1/2+y,1/2+z
1/2-y,1/2+x,1/2+z
1/2-x,1/2-y,1/2+z
1/2+y,1/2-x,1/2+z
1/2+x,1/2-y,-z
1/2-x,1/2+y,-z
1/2+y,1/2+x,-z
1/2-y,1/2-x,-z
1/2-x,1/2-y,1/2-z
1/2+y,1/2-x,1/2-z
1/2+x,1/2+y,1/2-z
1/2-y,1/2+x,1/2-z
1/2-x,1/2+y,z
1/2+x,1/2-y,z
1/2-y,1/2-x,z
1/2+y,1/2+x,z
loop_
_atom_site_type_symbol
_atom_site_label
_atom_site_fract_x
_atom_site_fract_y
_atom_site_fract_z
Si Si1 0.238947 0.149950 0.637756
Si Si2 0.555879 0.055879 0.900405
Si Si3 0.510359 0.794393 0.405755
Si Si4 0.242702 0.368496 0.667486
O O1 0.301047 0.198954 0.610108
O O2 0.246227 0.076342 0.598532
O O3 0.247851 0.139070 0.735180
O O4 0.170011 0.193059 0.626574
O O5 0.534490 0.131470 0.873337
O O6 0.500000 0.000000 0.875775
O O7 0.557703 0.057703 0.000000
O O8 0.489340 0.803098 0.500000
O O9 0.446133 0.766488 0.357008
O O10 0.175693 0.324308 0.645162
#
# Coordination Sequence:
#
# PCOD9572610 Si02
#       4
#    32  16  32  32
#     4   9  18  35  54  73 100 136 178 218 257 306
#     4   9  18  30  44  67 104 142 167 193 246 314
#     4  11  20  31  50  76 107 139 168 212 265 311
#     4   9  19  34  54  75  99 136 179 220 256 303
#
# _framework density 17.778803
#
# number of rings (size 3 to 8) (size 9 to 14) (size 15 to 20)
#    0.000    2.429    1.429    3.429    0.000    2.857 
#    0.000    2.857    0.000    0.857    0.000    6.000 
#    0.000    0.000    0.000    0.000    0.000    0.000 
#
# Total GULP energy -312481.026757 kJ/mol
# GULP energy per Si atom -5580.018335 kJ/mol
# Density = 1.773834 g / cm^3
# Si number density = 17.778803 Si / 1000 Ang^3
#
#
#
# Elastic Constant Matrix: (Units=GPa)
#
#
# Indices 1 2 3 4 5 6 
#
# 1 110.6815 61.2881 14.5388 0.0000 0.0000 0.0000
# 2 61.2881 110.6815 14.5388 0.0000 0.0000 0.0000
# 3 14.5388 14.5388 17.7347 0.0000 0.0000 0.0000
# 4 0.0000 0.0000 0.0000 17.5446 0.0000 0.0000
# 5 0.0000 0.0000 0.0000 0.0000 17.5446 0.0000
# 6 0.0000 0.0000 0.0000 0.0000 0.0000 22.3827
#
#
#
# Elastic Compliance Matrix: (Units=1/GPa)
#
#
# Indices 1 2 3 4 5 6 
#
# 1 0.013498 -0.006747 -0.005534 0.000000 0.000000 0.000000
# 2 -0.006747 0.013498 -0.005534 0.000000 0.000000 0.000000
# 3 -0.005534 -0.005534 0.065461 0.000000 0.000000 0.000000
# 4 0.000000 0.000000 0.000000 0.056998 0.000000 0.000000
# 5 0.000000 0.000000 0.000000 0.000000 0.056998 0.000000
# 6 0.000000 0.000000 0.000000 0.000000 0.000000 0.044677
#
#
# Mechanical properties :
#
#
# Convention : Reuss Voigt Hill
#
# Bulk Modulus (GPa) = 17.59785 46.64768 32.12276
# Shear Modulus (GPa) = 16.35574 21.40984 18.88279
#
# Velocity S-wave (km/s) = 3.03637 3.47397 3.26252
# Velocity P-wave (km/s) = 4.71301 6.51046 5.68324
#
# Compressibility (1/GPa) = 0.05682513
#
# Stress axis : x y z
#
# Youngs Moduli (GPa) = 74.08402 74.08402 15.27637
#
# Poissons Ratio (x) = 0.49988 0.08454
# Poissons Ratio (y) = 0.49988 0.08454
# Poissons Ratio (z) = 0.41000 0.41000
#
# Static dielectric constant tensor:
#      x y z
#    x 1.594110 0.000000 0.000000 
#    y 0.000000 1.594110 0.000000 
#    z 0.000000 0.000000 1.644460 
# 
# From -- ./inp_files/6079.got.cif
#   From: 2010.05.17/outbox.cif.g08.bks.cpg/sg140_4_cif.got.tgz:6079.got - 2010.06.21 00:45:31.
