data_PCOD9572192
_publ_section_title
;
Structure prediction by ZEFSAII (Michael W. Deem and Ramdas Pophale) SiO2 
 PCOD9572192
Probable space group: I 4/M C M
;
_chemical_formula_sum "Si O2"
_cell_formula_units_Z 240
_cell_length_a 29.710032
_cell_length_b 29.710032
_cell_length_c 14.679004
_cell_angle_alpha 90.000000
_cell_angle_beta 90.000000
_cell_angle_gamma 90.000000
_cell_volume 12956.951346
_symmetry_space_group_name_H-M "I 4/M C M"
_symmetry_group_IT_number 140
_symmetry_cell_setting 'tetragonal'
loop_
_space_group_symop_operation_xyz
x,y,z
-y,x,z
-x,-y,z
y,-x,z
x,-y,1/2-z
-x,y,1/2-z
y,x,1/2-z
-y,-x,1/2-z
-x,-y,-z
y,-x,-z
x,y,-z
-y,x,-z
-x,y,1/2+z
x,-y,1/2+z
-y,-x,1/2+z
y,x,1/2+z
1/2+x,1/2+y,1/2+z
1/2-y,1/2+x,1/2+z
1/2-x,1/2-y,1/2+z
1/2+y,1/2-x,1/2+z
1/2+x,1/2-y,-z
1/2-x,1/2+y,-z
1/2+y,1/2+x,-z
1/2-y,1/2-x,-z
1/2-x,1/2-y,1/2-z
1/2+y,1/2-x,1/2-z
1/2+x,1/2+y,1/2-z
1/2-y,1/2+x,1/2-z
1/2-x,1/2+y,z
1/2+x,1/2-y,z
1/2-y,1/2-x,z
1/2+y,1/2+x,z
loop_
_atom_site_type_symbol
_atom_site_label
_atom_site_fract_x
_atom_site_fract_y
_atom_site_fract_z
Si Si1 0.435143 0.532111 0.611416
Si Si2 0.366940 0.604283 0.393026
Si Si3 0.802203 0.085171 0.398377
Si Si4 0.344432 0.988163 0.854245
Si Si5 0.991785 0.756062 0.103201
Si Si6 0.685996 0.113535 0.891469
Si Si7 0.077074 0.500126 0.000000
Si Si8 0.900862 0.774967 0.795067
O O1 0.441580 0.480554 0.639524
O O2 0.434551 0.532474 0.500000
O O3 0.391454 0.559158 0.641127
O O4 0.355383 0.598600 0.500000
O O5 0.401834 0.645601 0.387418
O O6 0.322332 0.613798 0.336927
O O7 0.788534 0.100340 0.500000
O O8 0.791338 0.032244 0.393616
O O9 0.776071 0.105314 0.312774
O O10 0.333647 0.935384 0.866900
O O11 0.387743 0.000053 0.915387
O O12 0.353135 0.000000 0.750000
O O13 0.295375 0.009030 0.881690
O O14 0.953355 0.767929 0.175639
O O15 0.972407 0.757391 0.000000
O O16 0.650179 0.150179 0.863517
O O17 0.732920 0.122102 0.842551
O O18 0.691825 0.114758 0.000000
O O19 0.044624 0.455377 0.000000
O O20 0.042748 0.542748 0.000000
#
# Coordination Sequence:
#
# PCOD9572192 Si02
#       8
#    32  32  32  32  32  32  16  32
#     4   8  15  28  46  71 107 152 194 228 273 340
#     4  10  20  32  52  81 115 153 188 238 296 349
#     4  10  22  36  52  76 111 153 189 229 295 348
#     4  11  20  36  61  88 118 154 196 238 286 332
#     4  10  19  35  59  86 111 143 186 241 296 345
#     4  10  20  37  64  93 118 148 185 238 299 345
#     4  11  24  40  56  82 124 164 196 230 269 330
#     4  11  20  35  56  85 113 141 190 246 288 344
#
# _framework density 18.522876
#
# number of rings (size 3 to 8) (size 9 to 14) (size 15 to 20)
#    0.000    1.933    1.333    5.200    1.867    1.067 
#    0.000    0.667    0.000    2.000    0.000    5.600 
#    0.000    0.000    0.000    0.000    0.000    0.000 
#
# Total GULP energy -669677.875745 kJ/mol
# GULP energy per Si atom -5580.648965 kJ/mol
# Density = 1.848072 g / cm^3
# Si number density = 18.522876 Si / 1000 Ang^3
#
#
#
# Elastic Constant Matrix: (Units=GPa)
#
#
# Indices 1 2 3 4 5 6 
#
# 1 64.7602 40.4013 22.2280 0.0000 0.0000 0.0000
# 2 40.4013 64.7611 22.2281 0.0000 0.0000 0.0000
# 3 22.2280 22.2281 103.8454 0.0000 0.0000 0.0000
# 4 0.0000 0.0000 0.0000 5.4135 0.0000 0.0000
# 5 0.0000 0.0000 0.0000 0.0000 5.4154 0.0000
# 6 0.0000 0.0000 0.0000 0.0000 0.0000 29.8300
#
#
#
# Elastic Compliance Matrix: (Units=1/GPa)
#
#
# Indices 1 2 3 4 5 6 
#
# 1 0.025754 -0.015298 -0.002238 0.000000 0.000000 0.000000
# 2 -0.015298 0.025753 -0.002238 0.000000 0.000000 0.000000
# 3 -0.002238 -0.002238 0.010588 0.000000 0.000000 0.000000
# 4 0.000000 0.000000 0.000000 0.184725 0.000000 0.000000
# 5 0.000000 0.000000 0.000000 0.000000 0.184657 0.000000
# 6 0.000000 0.000000 0.000000 0.000000 0.000000 0.033523
#
#
# Mechanical properties :
#
#
# Convention : Reuss Voigt Hill
#
# Bulk Modulus (GPa) = 44.35288 44.78682 44.56985
# Shear Modulus (GPa) = 9.76441 18.03241 13.89841
#
# Velocity S-wave (km/s) = 2.29847 3.12351 2.74220
# Velocity P-wave (km/s) = 5.57143 6.10247 5.84299
#
# Compressibility (1/GPa) = 0.02254645
#
# Stress axis : x y z
#
# Youngs Moduli (GPa) = 38.82928 38.82985 94.44878
#
# Poissons Ratio (x) = 0.59403 0.21137
# Poissons Ratio (y) = 0.59402 0.21137
# Poissons Ratio (z) = 0.08690 0.08690
#
# Static dielectric constant tensor:
#      x y z
#    x 1.632800 0.000000 0.000000 
#    y 0.000000 1.632800 0.000000 
#    z 0.000000 0.000000 1.689540 
# 
# From -- ./inp_files/5387.got.cif
#   From: 2010.05.17/outbox.cif.g08.bks.cpg/sg140_3_cif.got.tgz:5387.got - 2010.06.21 00:45:31.
