data_PCOD9572490
_publ_section_title
;
Structure prediction by ZEFSAII (Michael W. Deem and Ramdas Pophale) SiO2 
 PCOD9572490
Probable space group: I 4/M C M
;
_chemical_formula_sum "Si O2"
_cell_formula_units_Z 168
_cell_length_a 22.476886
_cell_length_b 22.476886
_cell_length_c 15.861666
_cell_angle_alpha 90.000000
_cell_angle_beta 90.000000
_cell_angle_gamma 90.000000
_cell_volume 8013.478692
_symmetry_space_group_name_H-M "I 4/M C M"
_symmetry_group_IT_number 140
_symmetry_cell_setting 'tetragonal'
loop_
_space_group_symop_operation_xyz
x,y,z
-y,x,z
-x,-y,z
y,-x,z
x,-y,1/2-z
-x,y,1/2-z
y,x,1/2-z
-y,-x,1/2-z
-x,-y,-z
y,-x,-z
x,y,-z
-y,x,-z
-x,y,1/2+z
x,-y,1/2+z
-y,-x,1/2+z
y,x,1/2+z
1/2+x,1/2+y,1/2+z
1/2-y,1/2+x,1/2+z
1/2-x,1/2-y,1/2+z
1/2+y,1/2-x,1/2+z
1/2+x,1/2-y,-z
1/2-x,1/2+y,-z
1/2+y,1/2+x,-z
1/2-y,1/2-x,-z
1/2-x,1/2-y,1/2-z
1/2+y,1/2-x,1/2-z
1/2+x,1/2+y,1/2-z
1/2-y,1/2+x,1/2-z
1/2-x,1/2+y,z
1/2+x,1/2-y,z
1/2-y,1/2-x,z
1/2+y,1/2+x,z
loop_
_atom_site_type_symbol
_atom_site_label
_atom_site_fract_x
_atom_site_fract_y
_atom_site_fract_z
Si Si1 0.874808 0.103000 0.655511
Si Si2 0.855993 0.355993 0.500000
Si Si3 0.324927 0.477819 0.095440
Si Si4 0.560178 0.800859 0.352990
Si Si5 0.573732 0.167411 0.657771
Si Si6 0.763086 0.168927 0.400470
O O1 0.897910 0.102091 0.750000
O O2 0.930212 0.122210 0.598791
O O3 0.823611 0.152614 0.645312
O O4 0.846410 0.040463 0.630788
O O5 0.820601 0.394216 0.424968
O O6 0.270003 0.450628 0.147055
O O7 0.303932 0.486480 0.000000
O O8 0.494516 0.828312 0.369537
O O9 0.577224 0.820407 0.258378
O O10 0.604483 0.104483 0.639499
O O11 0.614433 0.217426 0.613808
O O12 0.775508 0.174837 0.500000
O O13 0.728391 0.228391 0.372384
#
# Coordination Sequence:
#
# PCOD9572490 Si02
#       6
#    32   8  32  32  32  32
#     4  12  26  44  68 101 134 179 233 287 355 419
#     4  12  24  44  69 108 140 188 236 284 362 427
#     4  12  25  45  70  98 136 182 229 291 348 423
#     4  11  23  42  68  99 141 184 228 291 354 423
#     4  10  21  39  68  97 134 183 231 282 348 419
#     4  10  21  40  66  99 134 175 233 288 345 424
#
# _framework density 20.964677999999999
#
# number of rings (size 3 to 8) (size 9 to 14) (size 15 to 20)
#    0.000    0.952    3.810    3.429    4.000    0.762 
#    1.714    2.857    0.000    0.000    0.000    0.000 
#    0.000    0.000    0.000    0.000    0.000    0.000 
#
# Total GULP energy -468861.458713 kJ/mol
# GULP energy per Si atom -5581.684032 kJ/mol
# Density = 2.091696 g / cm^3
# Si number density = 20.964678 Si / 1000 Ang^3
#
#
#
# Elastic Constant Matrix: (Units=GPa)
#
#
# Indices 1 2 3 4 5 6 
#
# 1 61.5457 58.3837 1.8525 0.0000 0.0000 0.0000
# 2 58.3837 61.5478 1.8533 0.0000 0.0000 0.0000
# 3 1.8525 1.8533 38.3896 0.0000 0.0000 0.0000
# 4 0.0000 0.0000 0.0000 -22.6190 0.0000 0.0000
# 5 0.0000 0.0000 0.0000 0.0000 -22.4477 0.0000
# 6 0.0000 0.0000 0.0000 0.0000 0.0000 5.8180
#
#
#
# Elastic Compliance Matrix: (Units=1/GPa)
#
#
# Indices 1 2 3 4 5 6 
#
# 1 0.162255 -0.153902 -0.000400 0.000000 0.000000 0.000000
# 2 -0.153902 0.162250 -0.000406 0.000000 0.000000 0.000000
# 3 -0.000400 -0.000406 0.026088 0.000000 0.000000 0.000000
# 4 0.000000 0.000000 0.000000 -0.044211 0.000000 0.000000
# 5 0.000000 0.000000 0.000000 0.000000 -0.044548 0.000000
# 6 0.000000 0.000000 0.000000 0.000000 0.000000 0.171882
#
#
# Mechanical properties :
#
#
# Convention : Reuss Voigt Hill
#
# Bulk Modulus (GPa) = 24.28560 31.74023 28.01292
# Shear Modulus (GPa) = 6.60626 -1.22352 2.69137
#
# Velocity S-wave (km/s) = 1.77707 -0.76477 1.13426
# Velocity P-wave (km/s) = 3.97742 3.79380 3.88669
#
# Compressibility (1/GPa) = 0.04117667
#
# Stress axis : x y z
#
# Youngs Moduli (GPa) = 6.16313 6.16333 38.33234
#
# Poissons Ratio (x) = 0.94855 0.01532
# Poissons Ratio (y) = 0.94852 0.01558
# Poissons Ratio (z) = 0.00246 0.00251
#
# Static dielectric constant tensor:
#      x y z
#    x 1.746400 0.000000 0.000000 
#    y 0.000000 1.746400 0.000000 
#    z 0.000000 0.000000 1.743220 
# 
# From -- ./inp_files/4967.got.cif
#   From: 2010.05.17/outbox.cif.g08.bks.cpg/sg140_3_cif.got.tgz:4967.got - 2010.06.21 00:45:31.
