data_PCOD9572484
_publ_section_title
;
Structure prediction by ZEFSAII (Michael W. Deem and Ramdas Pophale) SiO2 
 PCOD9572484
Probable space group: I 4/M C M
;
_chemical_formula_sum "Si O2"
_cell_formula_units_Z 192
_cell_length_a 20.202500
_cell_length_b 20.202500
_cell_length_c 25.099553
_cell_angle_alpha 90.000000
_cell_angle_beta 90.000000
_cell_angle_gamma 90.000000
_cell_volume 10244.156818
_symmetry_space_group_name_H-M "I 4/M C M"
_symmetry_group_IT_number 140
_symmetry_cell_setting 'tetragonal'
loop_
_space_group_symop_operation_xyz
x,y,z
-y,x,z
-x,-y,z
y,-x,z
x,-y,1/2-z
-x,y,1/2-z
y,x,1/2-z
-y,-x,1/2-z
-x,-y,-z
y,-x,-z
x,y,-z
-y,x,-z
-x,y,1/2+z
x,-y,1/2+z
-y,-x,1/2+z
y,x,1/2+z
1/2+x,1/2+y,1/2+z
1/2-y,1/2+x,1/2+z
1/2-x,1/2-y,1/2+z
1/2+y,1/2-x,1/2+z
1/2+x,1/2-y,-z
1/2-x,1/2+y,-z
1/2+y,1/2+x,-z
1/2-y,1/2-x,-z
1/2-x,1/2-y,1/2-z
1/2+y,1/2-x,1/2-z
1/2+x,1/2+y,1/2-z
1/2-y,1/2+x,1/2-z
1/2-x,1/2+y,z
1/2+x,1/2-y,z
1/2-y,1/2-x,z
1/2+y,1/2+x,z
loop_
_atom_site_type_symbol
_atom_site_label
_atom_site_fract_x
_atom_site_fract_y
_atom_site_fract_z
Si Si1 0.016319 0.379106 0.687254
Si Si2 0.730106 0.874601 0.842342
Si Si3 0.578931 0.318062 0.248208
Si Si4 0.183542 0.082277 0.062922
Si Si5 0.428189 0.689143 0.936938
Si Si6 0.395244 0.211707 0.345459
O O1 0.051561 0.448440 0.670629
O O2 0.072554 0.324915 0.675818
O O3 0.000000 0.384356 0.750000
O O4 0.951417 0.345444 0.661649
O O5 0.696910 0.803091 0.839846
O O6 0.787515 0.886716 0.800405
O O7 0.757403 0.890950 0.900601
O O8 0.500000 0.317497 0.250000
O O9 0.608518 0.391483 0.250000
O O10 0.597049 0.268164 0.199809
O O11 0.119044 0.126647 0.074120
O O12 0.173600 0.004836 0.075407
O O13 0.198129 0.087902 0.000000
O O14 0.405487 0.750434 0.900978
O O15 0.423408 0.703859 0.000000
O O16 0.325570 0.174431 0.341240
#
# Coordination Sequence:
#
# PCOD9572484 Si02
#       6
#    32  32  32  32  32  32
#     4  11  21  37  62  90 121 157 199 243 291 353
#     4  11  21  37  60  86 118 153 193 239 292 354
#     4  12  24  40  60  85 119 156 197 244 297 356
#     4  10  21  39  62  86 118 156 198 249 298 351
#     4  10  22  40  61  87 117 154 201 249 299 353
#     4  12  23  39  62  88 121 158 194 242 303 358
#
# _framework density 18.742391000000001
#
# number of rings (size 3 to 8) (size 9 to 14) (size 15 to 20)
#    0.000    1.000    5.000    2.000    0.000    5.667 
#    0.000    3.333    0.000    4.500    0.000    1.167 
#    0.000    0.000    0.000    0.000    0.000    0.000 
#
# Total GULP energy -535806.327290 kJ/mol
# GULP energy per Si atom -5581.315909 kJ/mol
# Density = 1.869973 g / cm^3
# Si number density = 18.742391 Si / 1000 Ang^3
#
#
#
# Elastic Constant Matrix: (Units=GPa)
#
#
# Indices 1 2 3 4 5 6 
#
# 1 71.1272 98.7906 43.8744 0.0000 0.0000 0.0000
# 2 98.7906 71.1108 43.8725 0.0000 0.0000 0.0000
# 3 43.8744 43.8725 54.9036 0.0000 0.0000 0.0000
# 4 0.0000 0.0000 0.0000 42.0137 0.0000 0.0000
# 5 0.0000 0.0000 0.0000 0.0000 41.9923 0.0000
# 6 0.0000 0.0000 0.0000 0.0000 0.0000 47.2036
#
#
#
# Elastic Compliance Matrix: (Units=1/GPa)
#
#
# Indices 1 2 3 4 5 6 
#
# 1 -0.013056 0.023080 -0.008009 0.000000 0.000000 0.000000
# 2 0.023080 -0.013061 -0.008006 0.000000 0.000000 0.000000
# 3 -0.008009 -0.008006 0.031012 0.000000 0.000000 0.000000
# 4 0.000000 0.000000 0.000000 0.023802 0.000000 0.000000
# 5 0.000000 0.000000 0.000000 0.000000 0.023814 0.000000
# 6 0.000000 0.000000 0.000000 0.000000 0.000000 0.021185
#
#
# Mechanical properties :
#
#
# Convention : Reuss Voigt Hill
#
# Bulk Modulus (GPa) = 52.56888 63.35739 57.96313
# Shear Modulus (GPa) = 75.86372 26.94886 51.40629
#
# Velocity S-wave (km/s) = 6.36906 3.79602 5.24284
# Velocity P-wave (km/s) = 9.06618 7.28634 8.22455
#
# Compressibility (1/GPa) = 0.01902266
#
# Stress axis : x y z
#
# Youngs Moduli (GPa) = -76.59204 -76.56349 32.24587
#
# Poissons Ratio (x) = 1.76705 0.25826
# Poissons Ratio (y) = 1.76771 0.25817
# Poissons Ratio (z) = -0.61343 -0.61300
#
# Static dielectric constant tensor:
#      x y z
#    x 1.660100 0.000000 0.000000 
#    y 0.000000 1.660100 0.000000 
#    z 0.000000 0.000000 1.642400 
# 
# From -- ./inp_files/9792.got.cif
#   From: 2010.05.17/outbox.cif.g08.bks.cpg/sg140_5_cif.got.tgz:9792.got - 2010.06.21 00:45:31.
