data_PCOD9572523
_publ_section_title
;
Structure prediction by ZEFSAII (Michael W. Deem and Ramdas Pophale) SiO2 
 PCOD9572523
Probable space group: I 4/M C M
;
_chemical_formula_sum "Si O2"
_cell_formula_units_Z 152
_cell_length_a 24.257647
_cell_length_b 24.257647
_cell_length_c 14.992197
_cell_angle_alpha 90.000000
_cell_angle_beta 90.000000
_cell_angle_gamma 90.000000
_cell_volume 8821.910024
_symmetry_space_group_name_H-M "I 4/M C M"
_symmetry_group_IT_number 140
_symmetry_cell_setting 'tetragonal'
loop_
_space_group_symop_operation_xyz
x,y,z
-y,x,z
-x,-y,z
y,-x,z
x,-y,1/2-z
-x,y,1/2-z
y,x,1/2-z
-y,-x,1/2-z
-x,-y,-z
y,-x,-z
x,y,-z
-y,x,-z
-x,y,1/2+z
x,-y,1/2+z
-y,-x,1/2+z
y,x,1/2+z
1/2+x,1/2+y,1/2+z
1/2-y,1/2+x,1/2+z
1/2-x,1/2-y,1/2+z
1/2+y,1/2-x,1/2+z
1/2+x,1/2-y,-z
1/2-x,1/2+y,-z
1/2+y,1/2+x,-z
1/2-y,1/2-x,-z
1/2-x,1/2-y,1/2-z
1/2+y,1/2-x,1/2-z
1/2+x,1/2+y,1/2-z
1/2-y,1/2+x,1/2-z
1/2-x,1/2+y,z
1/2+x,1/2-y,z
1/2-y,1/2-x,z
1/2+y,1/2+x,z
loop_
_atom_site_type_symbol
_atom_site_label
_atom_site_fract_x
_atom_site_fract_y
_atom_site_fract_z
Si Si1 0.816921 0.590966 0.500000
Si Si2 0.996854 0.162381 0.394067
Si Si3 0.413068 0.172426 0.500000
Si Si4 0.622284 0.613499 0.650374
Si Si5 0.500057 0.208128 0.645772
Si Si6 0.210643 0.289358 0.000000
Si Si7 0.703293 0.657374 0.500000
O O1 0.870673 0.629328 0.500000
O O2 0.812653 0.552372 0.588007
O O3 0.762358 0.628291 0.500000
O O4 0.006345 0.165401 0.500000
O O5 0.938087 0.134337 0.377206
O O6 0.998366 0.225113 0.359167
O O7 0.047337 0.128158 0.352882
O O8 0.389945 0.110056 0.500000
O O9 0.448414 0.186151 0.587884
O O10 0.357892 0.208925 0.500000
O O11 0.633211 0.633211 0.750000
O O12 0.667926 0.637460 0.584531
O O13 0.500000 0.192003 0.750000
O O14 0.209823 0.222257 0.000000
#
# Coordination Sequence:
#
# PCOD9572523 Si02
#       7
#    16  32  16  32  32   8  16
#     4  11  23  42  64  94 131 165 202 255 311 380
#     4  12  21  40  59  85 119 169 218 268 313 363
#     4   9  21  40  61  94 125 159 209 254 310 364
#     4  12  24  38  59  85 119 165 218 266 311 362
#     4  11  21  40  67  90 124 170 212 252 311 381
#     4  10  22  38  64  86 131 174 193 264 318 364
#     4  12  21  41  56  86 127 165 208 250 316 374
#
# _framework density 17.229828000000001
#
# number of rings (size 3 to 8) (size 9 to 14) (size 15 to 20)
#    0.316    0.421    6.842    3.158    0.000    1.263 
#    0.000    2.632    0.000    5.053    0.000    5.895 
#    0.000    0.000    0.000    0.000    0.000    0.000 
#
# Total GULP energy -423277.611208 kJ/mol
# GULP energy per Si atom -5569.442253 kJ/mol
# Density = 1.719061 g / cm^3
# Si number density = 17.229828 Si / 1000 Ang^3
#
#
#
# Elastic Constant Matrix: (Units=GPa)
#
#
# Indices 1 2 3 4 5 6 
#
# 1 129.4023 62.5534 41.6783 0.0000 0.0000 0.0000
# 2 62.5534 129.4096 41.6820 0.0000 0.0000 0.0000
# 3 41.6783 41.6820 152.5329 0.0000 0.0000 0.0000
# 4 0.0000 0.0000 0.0000 3.8474 0.0000 0.0000
# 5 0.0000 0.0000 0.0000 0.0000 3.8480 0.0000
# 6 0.0000 0.0000 0.0000 0.0000 0.0000 43.0868
#
#
#
# Elastic Compliance Matrix: (Units=1/GPa)
#
#
# Indices 1 2 3 4 5 6 
#
# 1 0.010435 -0.004524 -0.001615 0.000000 0.000000 0.000000
# 2 -0.004524 0.010434 -0.001615 0.000000 0.000000 0.000000
# 3 -0.001615 -0.001615 0.007439 0.000000 0.000000 0.000000
# 4 0.000000 0.000000 0.000000 0.259913 0.000000 0.000000
# 5 0.000000 0.000000 0.000000 0.000000 0.259874 0.000000
# 6 0.000000 0.000000 0.000000 0.000000 0.000000 0.023209
#
#
# Mechanical properties :
#
#
# Convention : Reuss Voigt Hill
#
# Bulk Modulus (GPa) = 78.12681 78.13023 78.12852
# Shear Modulus (GPa) = 8.45913 27.85186 18.15550
#
# Velocity S-wave (km/s) = 2.21816 4.02492 3.24963
# Velocity P-wave (km/s) = 7.21129 8.18806 7.71515
#
# Compressibility (1/GPa) = 0.01279970
#
# Stress axis : x y z
#
# Youngs Moduli (GPa) = 95.83324 95.83751 134.43294
#
# Poissons Ratio (x) = 0.43354 0.21711
# Poissons Ratio (y) = 0.43352 0.21715
# Poissons Ratio (z) = 0.15477 0.15480
#
# Static dielectric constant tensor:
#      x y z
#    x 1.578020 0.000000 0.000000 
#    y 0.000000 1.578020 0.000000 
#    z 0.000000 0.000000 1.597150 
# 
# From -- ./inp_files/4852.got.cif
#   From: 2010.05.17/outbox.cif.g08.bks.cpg/sg140_3_cif.got.tgz:4852.got - 2010.06.21 00:45:31.
