data_PCOD9572950
_publ_section_title
;
Structure prediction by ZEFSAII (Michael W. Deem and Ramdas Pophale) SiO2 
 PCOD9572950
Probable space group: I 41/A M D
;
_chemical_formula_sum "Si O2"
_cell_formula_units_Z 176
_cell_length_a 26.140835
_cell_length_b 26.140835
_cell_length_c 12.080455
_cell_angle_alpha 90.000000
_cell_angle_beta 90.000000
_cell_angle_gamma 90.000000
_cell_volume 8255.097436
_symmetry_space_group_name_H-M "I 41/A M D"
_symmetry_group_IT_number 141
_space_group.IT_coordinate_system_code '2'
_symmetry_cell_setting 'tetragonal'
loop_
_space_group_symop_operation_xyz
x,y,z
1/4-y,3/4+x,1/4+z
-x,1/2-y,z
1/4+y,1/4-x,3/4+z
x,-y,-z
-x,1/2+y,-z
1/4+y,3/4+x,1/4-z
1/4-y,1/4-x,3/4-z
-x,-y,-z
3/4+y,1/4-x,3/4-z
x,1/2+y,-z
3/4-y,3/4+x,1/4-z
-x,y,z
x,1/2-y,z
3/4-y,1/4-x,3/4+z
3/4+y,3/4+x,1/4+z
1/2+x,1/2+y,1/2+z
3/4-y,1/4+x,3/4+z
1/2-x,-y,1/2+z
3/4+y,3/4-x,1/4+z
1/2+x,1/2-y,1/2-z
1/2-x,y,1/2-z
3/4+y,1/4+x,3/4-z
3/4-y,3/4-x,1/4-z
1/2-x,1/2-y,1/2-z
1/4+y,3/4-x,1/4-z
1/2+x,y,1/2-z
1/4-y,1/4+x,3/4-z
1/2-x,1/2+y,1/2+z
1/2+x,-y,1/2+z
1/4-y,3/4-x,1/4+z
1/4+y,1/4+x,3/4+z
loop_
_atom_site_type_symbol
_atom_site_label
_atom_site_fract_x
_atom_site_fract_y
_atom_site_fract_z
Si Si1 0.554755 0.195246 0.125000
Si Si2 0.889169 0.398675 0.107151
Si Si3 0.056270 0.406743 0.521680
Si Si4 0.801927 0.308298 0.824705
Si Si5 0.302056 0.633783 0.916426
Si Si6 0.339230 0.045459 0.723828
O O1 0.555949 0.250000 0.062738
O O2 0.604471 0.195426 0.199711
O O3 0.860949 0.345664 0.135011
O O4 0.931808 0.402200 0.013222
O O5 0.907600 0.425015 0.220462
O O6 0.841294 0.428524 0.054012
O O7 0.076773 0.449139 0.435026
O O8 0.000000 0.419573 0.562636
O O9 0.803221 0.250000 0.869227
O O10 0.750000 0.312702 0.750000
O O11 0.804613 0.355287 0.911812
O O12 0.343526 0.593526 0.875000
O O13 0.252732 0.601933 0.950778
O O14 0.297694 0.047694 0.625000
#
# Coordination Sequence:
#
# PCOD9572950 Si02
#       6
#    16  32  32  32  32  32
#     4   9  16  28  48  78 114 148 186 226 272 338
#     4  10  20  37  56  82 117 152 182 248 290 349
#     4  10  20  34  54  84 118 157 194 235 295 354
#     4  10  20  35  61  88 108 143 195 244 295 347
#     4  10  20  37  55  81 112 150 194 239 287 352
#     4  10  22  38  57  77 116 148 187 244 297 350
#
# _framework density 21.320160000000001
#
# number of rings (size 3 to 8) (size 9 to 14) (size 15 to 20)
#    0.000    2.091    4.545    0.000    0.000    5.818 
#    0.000    3.636    0.000    0.000    0.000    0.000 
#    0.000    0.000    0.000    0.000    0.000    0.000 
#
# Total GULP energy -490019.408605 kJ/mol
# GULP energy per Si atom -5568.402371 kJ/mol
# Density = 2.127163 g / cm^3
# Si number density = 21.320160 Si / 1000 Ang^3
#
#
#
# Elastic Constant Matrix: (Units=GPa)
#
#
# Indices 1 2 3 4 5 6 
#
# 1 78.9093 -15.0388 17.5815 0.0000 0.0000 0.0000
# 2 -15.0388 78.9108 17.5810 0.0000 0.0000 0.0000
# 3 17.5815 17.5810 50.2684 0.0000 0.0000 0.0000
# 4 0.0000 0.0000 0.0000 24.4777 0.0000 0.0000
# 5 0.0000 0.0000 0.0000 0.0000 24.4783 0.0000
# 6 0.0000 0.0000 0.0000 0.0000 0.0000 16.8293
#
#
#
# Elastic Compliance Matrix: (Units=1/GPa)
#
#
# Indices 1 2 3 4 5 6 
#
# 1 0.015017 0.004373 -0.006782 0.000000 0.000000 0.000000
# 2 0.004373 0.015017 -0.006781 0.000000 0.000000 0.000000
# 3 -0.006782 -0.006781 0.024637 0.000000 0.000000 0.000000
# 4 0.000000 0.000000 0.000000 0.040854 0.000000 0.000000
# 5 0.000000 0.000000 0.000000 0.000000 0.040852 0.000000
# 6 0.000000 0.000000 0.000000 0.000000 0.000000 0.059420
#
#
# Mechanical properties :
#
#
# Convention : Reuss Voigt Hill
#
# Bulk Modulus (GPa) = 27.55548 27.59286 27.57417
# Shear Modulus (GPa) = 22.09707 25.68805 23.89256
#
# Velocity S-wave (km/s) = 3.22287 3.47489 3.35125
# Velocity P-wave (km/s) = 5.17705 5.39167 5.28545
#
# Compressibility (1/GPa) = 0.03629042
#
# Stress axis : x y z
#
# Youngs Moduli (GPa) = 66.59039 66.59206 40.58957
#
# Poissons Ratio (x) = -0.29120 0.27527
# Poissons Ratio (y) = -0.29119 0.27526
# Poissons Ratio (z) = 0.45159 0.45159
#
# Static dielectric constant tensor:
#      x y z
#    x 1.825300 0.000000 0.000000 
#    y 0.000000 1.825300 0.000000 
#    z 0.000000 0.000000 1.922620 
# 
# From -- ./inp_files/5038.got.cif
#   From: 2010.05.17/outbox.cif.g08.bks.cpg/sg141_3_cif.got.tgz:5038.got - 2010.05.20 13:30:51.
