data_PCOD9572169
_publ_section_title
;
Structure prediction by ZEFSAII (Michael W. Deem and Ramdas Pophale) SiO2 
 PCOD9572169
Probable space group: I 4/M C M
;
_chemical_formula_sum "Si O2"
_cell_formula_units_Z 176
_cell_length_a 17.684636
_cell_length_b 17.684636
_cell_length_c 31.532357
_cell_angle_alpha 90.000000
_cell_angle_beta 90.000000
_cell_angle_gamma 90.000000
_cell_volume 9861.629573
_symmetry_space_group_name_H-M "I 4/M C M"
_symmetry_group_IT_number 140
_symmetry_cell_setting 'tetragonal'
loop_
_space_group_symop_operation_xyz
x,y,z
-y,x,z
-x,-y,z
y,-x,z
x,-y,1/2-z
-x,y,1/2-z
y,x,1/2-z
-y,-x,1/2-z
-x,-y,-z
y,-x,-z
x,y,-z
-y,x,-z
-x,y,1/2+z
x,-y,1/2+z
-y,-x,1/2+z
y,x,1/2+z
1/2+x,1/2+y,1/2+z
1/2-y,1/2+x,1/2+z
1/2-x,1/2-y,1/2+z
1/2+y,1/2-x,1/2+z
1/2+x,1/2-y,-z
1/2-x,1/2+y,-z
1/2+y,1/2+x,-z
1/2-y,1/2-x,-z
1/2-x,1/2-y,1/2-z
1/2+y,1/2-x,1/2-z
1/2+x,1/2+y,1/2-z
1/2-y,1/2+x,1/2-z
1/2-x,1/2+y,z
1/2+x,1/2-y,z
1/2-y,1/2-x,z
1/2+y,1/2+x,z
loop_
_atom_site_type_symbol
_atom_site_label
_atom_site_fract_x
_atom_site_fract_y
_atom_site_fract_z
Si Si1 0.993595 0.122775 0.948972
Si Si2 0.397419 0.770841 0.666530
Si Si3 0.975626 0.722710 0.904048
Si Si4 0.435922 0.064078 0.550896
Si Si5 0.850989 0.224958 0.656855
Si Si6 0.580603 0.293869 0.244507
O O1 0.993028 0.207629 0.931877
O O2 0.923148 0.069515 0.935672
O O3 0.993319 0.124642 0.000000
O O4 0.336073 0.836073 0.660223
O O5 0.466344 0.786185 0.635094
O O6 0.356475 0.690384 0.655695
O O7 0.416447 0.765339 0.716740
O O8 0.961959 0.644123 0.928627
O O9 0.896615 0.752351 0.884682
O O10 0.427462 0.072539 0.500000
O O11 0.500000 0.000000 0.558671
O O12 0.784328 0.284328 0.664510
O O13 0.907320 0.233258 0.696757
O O14 0.500000 0.333340 0.250000
O O15 0.649634 0.350367 0.250000
#
# Coordination Sequence:
#
# PCOD9572169 Si02
#       6
#    32  32  32  16  32  32
#     4   9  19  36  58  85 115 145 178 224 287 349
#     4  10  21  35  55  80 111 147 188 232 278 326
#     4  12  20  36  60  84 109 145 188 237 278 340
#     4  11  26  44  60  82 113 152 192 237 300 351
#     4  10  20  35  54  81 109 144 188 233 276 325
#     4  10  19  34  53  76 112 150 185 224 274 329
#
# _framework density 17.84695
#
# number of rings (size 3 to 8) (size 9 to 14) (size 15 to 20)
#    0.000    1.727    2.727    3.273    0.000    2.364 
#    0.000    0.000    0.000    0.000    0.000    1.273 
#    0.000    0.000    0.000    0.000    0.000    0.000 
#
# Total GULP energy -490350.504528 kJ/mol
# GULP energy per Si atom -5572.164824 kJ/mol
# Density = 1.780633 g / cm^3
# Si number density = 17.846950 Si / 1000 Ang^3
#
#
#
# Elastic Constant Matrix: (Units=GPa)
#
#
# Indices 1 2 3 4 5 6 
#
# 1 75.8470 18.6053 33.8891 0.0000 0.0000 0.0000
# 2 18.6053 75.8484 33.8891 0.0000 0.0000 0.0000
# 3 33.8891 33.8891 78.0452 0.0000 0.0000 0.0000
# 4 0.0000 0.0000 0.0000 29.2774 0.0000 0.0000
# 5 0.0000 0.0000 0.0000 0.0000 29.2772 0.0000
# 6 0.0000 0.0000 0.0000 0.0000 0.0000 25.4669
#
#
#
# Elastic Compliance Matrix: (Units=1/GPa)
#
#
# Indices 1 2 3 4 5 6 
#
# 1 0.016425 -0.001045 -0.006678 0.000000 0.000000 0.000000
# 2 -0.001045 0.016424 -0.006678 0.000000 0.000000 0.000000
# 3 -0.006678 -0.006678 0.018613 0.000000 0.000000 0.000000
# 4 0.000000 0.000000 0.000000 0.034156 0.000000 0.000000
# 5 0.000000 0.000000 0.000000 0.000000 0.034156 0.000000
# 6 0.000000 0.000000 0.000000 0.000000 0.000000 0.039267
#
#
# Mechanical properties :
#
#
# Convention : Reuss Voigt Hill
#
# Bulk Modulus (GPa) = 44.13249 44.72308 44.42778
# Shear Modulus (GPa) = 25.58902 26.36143 25.97522
#
# Velocity S-wave (km/s) = 3.79067 3.84745 3.81917
# Velocity P-wave (km/s) = 6.62879 6.69708 6.66302
#
# Compressibility (1/GPa) = 0.02265904
#
# Stress axis : x y z
#
# Youngs Moduli (GPa) = 60.88399 60.88543 53.72677
#
# Poissons Ratio (x) = 0.06363 0.35880
# Poissons Ratio (y) = 0.06363 0.35879
# Poissons Ratio (z) = 0.40660 0.40660
#
# Static dielectric constant tensor:
#      x y z
#    x 1.614660 0.000000 0.000000 
#    y 0.000000 1.614660 0.000000 
#    z 0.000000 0.000000 1.626170 
# 
# From -- ./inp_files/10670.got.cif
#   From: 2010.05.17/outbox.cif.g08.bks.cpg/sg140_6_cif.got.tgz:10670.got - 2010.06.21 00:45:31.
