data_PCOD9572616
_publ_section_title
;
Structure prediction by ZEFSAII (Michael W. Deem and Ramdas Pophale) SiO2 
 PCOD9572616
Probable space group: I 4/M C M
;
_chemical_formula_sum "Si O2"
_cell_formula_units_Z 144
_cell_length_a 20.333875
_cell_length_b 20.333875
_cell_length_c 18.289941
_cell_angle_alpha 90.000000
_cell_angle_beta 90.000000
_cell_angle_gamma 90.000000
_cell_volume 7562.277388
_symmetry_space_group_name_H-M "I 4/M C M"
_symmetry_group_IT_number 140
_symmetry_cell_setting 'tetragonal'
loop_
_space_group_symop_operation_xyz
x,y,z
-y,x,z
-x,-y,z
y,-x,z
x,-y,1/2-z
-x,y,1/2-z
y,x,1/2-z
-y,-x,1/2-z
-x,-y,-z
y,-x,-z
x,y,-z
-y,x,-z
-x,y,1/2+z
x,-y,1/2+z
-y,-x,1/2+z
y,x,1/2+z
1/2+x,1/2+y,1/2+z
1/2-y,1/2+x,1/2+z
1/2-x,1/2-y,1/2+z
1/2+y,1/2-x,1/2+z
1/2+x,1/2-y,-z
1/2-x,1/2+y,-z
1/2+y,1/2+x,-z
1/2-y,1/2-x,-z
1/2-x,1/2-y,1/2-z
1/2+y,1/2-x,1/2-z
1/2+x,1/2+y,1/2-z
1/2-y,1/2+x,1/2-z
1/2-x,1/2+y,z
1/2+x,1/2-y,z
1/2-y,1/2-x,z
1/2+y,1/2+x,z
loop_
_atom_site_type_symbol
_atom_site_label
_atom_site_fract_x
_atom_site_fract_y
_atom_site_fract_z
Si Si1 0.131661 0.739106 0.000000
Si Si2 0.555200 0.944801 0.088784
Si Si3 0.000000 0.795383 0.750000
Si Si4 0.472702 0.801988 0.618831
Si Si5 0.044644 0.897721 0.355023
Si Si6 0.197313 0.413377 0.000000
Si Si7 0.157622 0.109994 0.500000
O O1 0.090310 0.715704 0.930096
O O2 0.202067 0.702067 0.000000
O O3 0.126968 0.817816 0.000000
O O4 0.532430 0.879624 0.130209
O O5 0.500000 0.000000 0.089678
O O6 0.568140 0.931861 0.000000
O O7 0.974293 0.747121 0.686709
O O8 0.948565 0.844353 0.790452
O O9 0.538310 0.797385 0.569503
O O10 0.067617 0.864041 0.429896
O O11 0.967181 0.917226 0.351818
O O12 0.265098 0.374451 0.000000
O O13 0.132954 0.367047 0.000000
#
# Coordination Sequence:
#
# PCOD9572616 Si02
#       7
#    16  16  16  32  32  16  16
#     4  11  22  42  68  91 128 172 225 269 327 405
#     4  11  20  40  74 102 121 162 224 284 333 384
#     4  12  24  41  61  94 136 178 204 258 334 396
#     4  11  22  42  65  95 130 173 215 268 326 399
#     4  11  24  42  66  96 129 168 223 276 322 384
#     4  11  22  41  64  94 126 164 216 271 324 375
#     4  12  23  39  67 100 129 167 220 278 329 389
#
# _framework density 19.041882999999999
#
# number of rings (size 3 to 8) (size 9 to 14) (size 15 to 20)
#    0.000    0.778    5.556    3.667    3.111    1.778 
#    4.000    0.000    0.000    1.333    0.000    0.000 
#    0.000    0.000    0.000    0.000    0.000    0.000 
#
# Total GULP energy -401647.471189 kJ/mol
# GULP energy per Si atom -5578.437100 kJ/mol
# Density = 1.899854 g / cm^3
# Si number density = 19.041883 Si / 1000 Ang^3
#
#
#
# Elastic Constant Matrix: (Units=GPa)
#
#
# Indices 1 2 3 4 5 6 
#
# 1 110.7996 43.8010 54.0891 0.0000 0.0000 0.0000
# 2 43.8010 110.7963 54.0886 0.0000 0.0000 0.0000
# 3 54.0891 54.0886 126.4115 0.0000 0.0000 0.0000
# 4 0.0000 0.0000 0.0000 9.3842 0.0000 0.0000
# 5 0.0000 0.0000 0.0000 0.0000 9.3872 0.0000
# 6 0.0000 0.0000 0.0000 0.0000 0.0000 28.9501
#
#
#
# Elastic Compliance Matrix: (Units=1/GPa)
#
#
# Indices 1 2 3 4 5 6 
#
# 1 0.012079 -0.002847 -0.003950 0.000000 0.000000 0.000000
# 2 -0.002847 0.012080 -0.003950 0.000000 0.000000 0.000000
# 3 -0.003950 -0.003950 0.011291 0.000000 0.000000 0.000000
# 4 0.000000 0.000000 0.000000 0.106562 0.000000 0.000000
# 5 0.000000 0.000000 0.000000 0.000000 0.106528 0.000000
# 6 0.000000 0.000000 0.000000 0.000000 0.000000 0.034542
#
#
# Mechanical properties :
#
#
# Convention : Reuss Voigt Hill
#
# Bulk Modulus (GPa) = 71.66029 72.44056 72.05042
# Shear Modulus (GPa) = 16.16922 22.61287 19.39105
#
# Velocity S-wave (km/s) = 2.91716 3.44980 3.19460
# Velocity P-wave (km/s) = 7.00436 7.34803 7.17825
#
# Compressibility (1/GPa) = 0.01395473
#
# Stress axis : x y z
#
# Youngs Moduli (GPa) = 82.78748 82.78478 88.56384
#
# Poissons Ratio (x) = 0.23567 0.34986
# Poissons Ratio (y) = 0.23567 0.34987
# Poissons Ratio (z) = 0.32704 0.32704
#
# Static dielectric constant tensor:
#      x y z
#    x 1.711240 0.000000 0.000000 
#    y 0.000000 1.711250 0.000000 
#    z 0.000000 0.000000 1.683140 
# 
# From -- ./inp_files/6751.got.cif
#   From: 2010.05.17/outbox.cif.g08.bks.cpg/sg140_4_cif.got.tgz:6751.got - 2010.06.21 00:45:31.
