data_PCOD9572976
_publ_section_title
;
Structure prediction by ZEFSAII (Michael W. Deem and Ramdas Pophale) SiO2 
 PCOD9572976
Probable space group: I 41/A M D
;
_chemical_formula_sum "Si O2"
_cell_formula_units_Z 128
_cell_length_a 21.848309
_cell_length_b 21.848309
_cell_length_c 12.836183
_cell_angle_alpha 90.000000
_cell_angle_beta 90.000000
_cell_angle_gamma 90.000000
_cell_volume 6127.334063
_symmetry_space_group_name_H-M "I 41/A M D"
_symmetry_group_IT_number 141
_space_group.IT_coordinate_system_code '2'
_symmetry_cell_setting 'tetragonal'
loop_
_space_group_symop_operation_xyz
x,y,z
1/4-y,3/4+x,1/4+z
-x,1/2-y,z
1/4+y,1/4-x,3/4+z
x,-y,-z
-x,1/2+y,-z
1/4+y,3/4+x,1/4-z
1/4-y,1/4-x,3/4-z
-x,-y,-z
3/4+y,1/4-x,3/4-z
x,1/2+y,-z
3/4-y,3/4+x,1/4-z
-x,y,z
x,1/2-y,z
3/4-y,1/4-x,3/4+z
3/4+y,3/4+x,1/4+z
1/2+x,1/2+y,1/2+z
3/4-y,1/4+x,3/4+z
1/2-x,-y,1/2+z
3/4+y,3/4-x,1/4+z
1/2+x,1/2-y,1/2-z
1/2-x,y,1/2-z
3/4+y,1/4+x,3/4-z
3/4-y,3/4-x,1/4-z
1/2-x,1/2-y,1/2-z
1/4+y,3/4-x,1/4-z
1/2+x,y,1/2-z
1/4-y,1/4+x,3/4-z
1/2-x,1/2+y,1/2+z
1/2+x,-y,1/2+z
1/4-y,3/4-x,1/4+z
1/4+y,1/4+x,3/4+z
loop_
_atom_site_type_symbol
_atom_site_label
_atom_site_fract_x
_atom_site_fract_y
_atom_site_fract_z
Si Si1 0.180182 0.941587 0.284255
Si Si2 0.884109 0.318726 0.768784
Si Si3 0.066626 0.679035 0.460378
Si Si4 0.317373 0.100958 0.010899
O O1 0.250000 0.956160 0.250000
O O2 0.163468 0.874601 0.241734
O O3 0.171167 0.939163 0.408392
O O4 0.134768 0.995251 0.245842
O O5 0.920890 0.329111 0.875000
O O6 0.857468 0.250000 0.767710
O O7 0.925476 0.324213 0.665027
O O8 0.065652 0.750000 0.489954
O O9 0.128351 0.650085 0.505811
O O10 0.000000 0.651753 0.489266
O O11 0.321786 0.071786 0.125000
#
# Coordination Sequence:
#
# PCOD9572976 Si02
#       4
#    32  32  32  32
#     4  11  22  39  61  86 121 161 201 248 304 362
#     4  10  20  35  60  92 122 157 202 249 302 363
#     4   9  20  39  61  87 120 158 201 250 305 363
#     4  11  22  37  61  89 117 158 204 246 300 365
#
# _framework density 20.889999
#
# number of rings (size 3 to 8) (size 9 to 14) (size 15 to 20)
#    0.000    1.750    0.000    5.250    0.000    2.750 
#    0.000   12.500    0.000   14.250    0.000    0.000 
#    0.000    0.000    0.000    0.000    0.000    0.000 
#
# Total GULP energy -356558.633355 kJ/mol
# GULP energy per Si atom -5571.228646 kJ/mol
# Density = 2.084245 g / cm^3
# Si number density = 20.889999 Si / 1000 Ang^3
#
#
#
# Elastic Constant Matrix: (Units=GPa)
#
#
# Indices 1 2 3 4 5 6 
#
# 1 129.6973 75.5458 19.5947 0.0000 0.0000 0.0000
# 2 75.5458 129.6976 19.5949 0.0000 0.0000 0.0000
# 3 19.5947 19.5949 105.2320 0.0000 0.0000 0.0000
# 4 0.0000 0.0000 0.0000 15.5191 0.0000 0.0000
# 5 0.0000 0.0000 0.0000 0.0000 15.5201 0.0000
# 6 0.0000 0.0000 0.0000 0.0000 0.0000 21.7943
#
#
#
# Elastic Compliance Matrix: (Units=1/GPa)
#
#
# Indices 1 2 3 4 5 6 
#
# 1 0.011759 -0.006707 -0.000941 0.000000 0.000000 0.000000
# 2 -0.006707 0.011759 -0.000941 0.000000 0.000000 0.000000
# 3 -0.000941 -0.000941 0.009853 0.000000 0.000000 0.000000
# 4 0.000000 0.000000 0.000000 0.064437 0.000000 0.000000
# 5 0.000000 0.000000 0.000000 0.000000 0.064433 0.000000
# 6 0.000000 0.000000 0.000000 0.000000 0.000000 0.045884
#
#
# Mechanical properties :
#
#
# Convention : Reuss Voigt Hill
#
# Bulk Modulus (GPa) = 61.75072 66.01086 63.88079
# Shear Modulus (GPa) = 21.67315 27.22613 24.44964
#
# Velocity S-wave (km/s) = 3.22450 3.61405 3.42482
# Velocity P-wave (km/s) = 6.59449 7.00593 6.80332
#
# Compressibility (1/GPa) = 0.01619414
#
# Stress axis : x y z
#
# Youngs Moduli (GPa) = 85.03914 85.03931 101.49057
#
# Poissons Ratio (x) = 0.57039 0.09547
# Poissons Ratio (y) = 0.57039 0.09547
# Poissons Ratio (z) = 0.07999 0.08000
#
# Static dielectric constant tensor:
#      x y z
#    x 1.763130 0.000000 0.000000 
#    y 0.000000 1.763130 0.000000 
#    z 0.000000 0.000000 1.800750 
# 
# From -- ./inp_files/4546.got.cif
#   From: 2010.05.17/outbox.cif.g08.bks.cpg/sg141_3_cif.got.tgz:4546.got - 2010.05.20 13:30:51.
