data_PCOD9572559
_publ_section_title
;
Structure prediction by ZEFSAII (Michael W. Deem and Ramdas Pophale) SiO2 
 PCOD9572559
Probable space group: I 4/M C M
;
_chemical_formula_sum "Si O2"
_cell_formula_units_Z 160
_cell_length_a 18.056708
_cell_length_b 18.056708
_cell_length_c 27.129708
_cell_angle_alpha 90.000000
_cell_angle_beta 90.000000
_cell_angle_gamma 90.000000
_cell_volume 8845.497609
_symmetry_space_group_name_H-M "I 4/M C M"
_symmetry_group_IT_number 140
_symmetry_cell_setting 'tetragonal'
loop_
_space_group_symop_operation_xyz
x,y,z
-y,x,z
-x,-y,z
y,-x,z
x,-y,1/2-z
-x,y,1/2-z
y,x,1/2-z
-y,-x,1/2-z
-x,-y,-z
y,-x,-z
x,y,-z
-y,x,-z
-x,y,1/2+z
x,-y,1/2+z
-y,-x,1/2+z
y,x,1/2+z
1/2+x,1/2+y,1/2+z
1/2-y,1/2+x,1/2+z
1/2-x,1/2-y,1/2+z
1/2+y,1/2-x,1/2+z
1/2+x,1/2-y,-z
1/2-x,1/2+y,-z
1/2+y,1/2+x,-z
1/2-y,1/2-x,-z
1/2-x,1/2-y,1/2-z
1/2+y,1/2-x,1/2-z
1/2+x,1/2+y,1/2-z
1/2-y,1/2+x,1/2-z
1/2-x,1/2+y,z
1/2+x,1/2-y,z
1/2-y,1/2-x,z
1/2+y,1/2+x,z
loop_
_atom_site_type_symbol
_atom_site_label
_atom_site_fract_x
_atom_site_fract_y
_atom_site_fract_z
Si Si1 0.918303 0.907082 0.500000
Si Si2 0.341335 0.036237 0.302315
Si Si3 0.062308 0.562308 0.125521
Si Si4 0.307364 0.551135 0.650588
Si Si5 0.896516 0.821076 0.402222
Si Si6 0.500000 0.377126 0.250000
Si Si7 0.837311 0.337311 0.060748
O O1 0.889113 0.867390 0.452038
O O2 0.006868 0.900202 0.500000
O O3 0.404251 0.095750 0.290273
O O4 0.275405 0.072714 0.333654
O O5 0.318780 0.000000 0.250000
O O6 0.377307 0.976618 0.339263
O O7 0.102216 0.602216 0.079652
O O8 0.000000 0.500000 0.112578
O O9 0.355196 0.623620 0.636464
O O10 0.311345 0.483777 0.611167
O O11 0.334155 0.508819 0.699622
O O12 0.861316 0.741086 0.414476
O O13 0.571046 0.428955 0.250000
O O14 0.833621 0.333621 0.000000
#
# Coordination Sequence:
#
# PCOD9572559 Si02
#       7
#    16  32  16  32  32  16  16
#     4  11  22  39  66  94 117 155 224 275 311 372
#     4  11  22  38  64  95 126 167 216 269 316 382
#     4  10  22  41  67  97 125 161 218 272 321 375
#     4  12  24  39  62  92 135 167 212 259 324 383
#     4  12  25  41  62  93 125 170 212 269 323 385
#     4  11  22  36  58  90 127 168 206 246 305 388
#     4  12  26  45  67  91 131 174 219 273 334 390
#
# _framework density 18.088298999999999
#
# number of rings (size 3 to 8) (size 9 to 14) (size 15 to 20)
#    0.000    0.600    9.000    0.000    1.400    0.600 
#    0.000    0.000    0.000    4.200    0.000    0.000 
#    0.000    0.000    0.000    0.000    0.000    0.000 
#
# Total GULP energy -445757.220043 kJ/mol
# GULP energy per Si atom -5571.965251 kJ/mol
# Density = 1.804713 g / cm^3
# Si number density = 18.088299 Si / 1000 Ang^3
#
#
#
# Elastic Constant Matrix: (Units=GPa)
#
#
# Indices 1 2 3 4 5 6 
#
# 1 109.4037 0.1999 29.7630 0.0000 0.0000 0.0000
# 2 0.1999 109.4042 29.7630 0.0000 0.0000 0.0000
# 3 29.7630 29.7630 92.7646 0.0000 0.0000 0.0000
# 4 0.0000 0.0000 0.0000 29.1252 0.0000 0.0000
# 5 0.0000 0.0000 0.0000 0.0000 29.1248 0.0000
# 6 0.0000 0.0000 0.0000 0.0000 0.0000 25.9204
#
#
#
# Elastic Compliance Matrix: (Units=1/GPa)
#
#
# Indices 1 2 3 4 5 6 
#
# 1 0.010103 0.000946 -0.003545 0.000000 0.000000 0.000000
# 2 0.000946 0.010103 -0.003545 0.000000 0.000000 0.000000
# 3 -0.003545 -0.003545 0.013055 0.000000 0.000000 0.000000
# 4 0.000000 0.000000 0.000000 0.034335 0.000000 0.000000
# 5 0.000000 0.000000 0.000000 0.000000 0.034335 0.000000
# 6 0.000000 0.000000 0.000000 0.000000 0.000000 0.038580
#
#
# Mechanical properties :
#
#
# Convention : Reuss Voigt Hill
#
# Bulk Modulus (GPa) = 47.68079 47.89158 47.78619
# Shear Modulus (GPa) = 31.29119 33.62385 32.45752
#
# Velocity S-wave (km/s) = 4.16373 4.31614 4.24062
# Velocity P-wave (km/s) = 7.03796 7.16748 7.10301
#
# Compressibility (1/GPa) = 0.02097281
#
# Stress axis : x y z
#
# Youngs Moduli (GPa) = 98.97899 98.97953 76.60028
#
# Poissons Ratio (x) = -0.09363 0.27155
# Poissons Ratio (y) = -0.09363 0.27155
# Poissons Ratio (z) = 0.35088 0.35088
#
# Static dielectric constant tensor:
#      x y z
#    x 1.627040 0.000000 0.000000 
#    y 0.000000 1.627030 0.000000 
#    z 0.000000 0.000000 1.684760 
# 
# From -- ./inp_files/10645.got.cif
#   From: 2010.05.17/outbox.cif.g08.bks.cpg/sg140_6_cif.got.tgz:10645.got - 2010.06.21 00:45:31.
