data_PCOD9572501
_publ_section_title
;
Structure prediction by ZEFSAII (Michael W. Deem and Ramdas Pophale) SiO2 
 PCOD9572501
Probable space group: I 4/M C M
;
_chemical_formula_sum "Si O2"
_cell_formula_units_Z 136
_cell_length_a 17.495934
_cell_length_b 17.495934
_cell_length_c 22.289539
_cell_angle_alpha 90.000000
_cell_angle_beta 90.000000
_cell_angle_gamma 90.000000
_cell_volume 6822.999663
_symmetry_space_group_name_H-M "I 4/M C M"
_symmetry_group_IT_number 140
_symmetry_cell_setting 'tetragonal'
loop_
_space_group_symop_operation_xyz
x,y,z
-y,x,z
-x,-y,z
y,-x,z
x,-y,1/2-z
-x,y,1/2-z
y,x,1/2-z
-y,-x,1/2-z
-x,-y,-z
y,-x,-z
x,y,-z
-y,x,-z
-x,y,1/2+z
x,-y,1/2+z
-y,-x,1/2+z
y,x,1/2+z
1/2+x,1/2+y,1/2+z
1/2-y,1/2+x,1/2+z
1/2-x,1/2-y,1/2+z
1/2+y,1/2-x,1/2+z
1/2+x,1/2-y,-z
1/2-x,1/2+y,-z
1/2+y,1/2+x,-z
1/2-y,1/2-x,-z
1/2-x,1/2-y,1/2-z
1/2+y,1/2-x,1/2-z
1/2+x,1/2+y,1/2-z
1/2-y,1/2+x,1/2-z
1/2-x,1/2+y,z
1/2+x,1/2-y,z
1/2-y,1/2-x,z
1/2+y,1/2+x,z
loop_
_atom_site_type_symbol
_atom_site_label
_atom_site_fract_x
_atom_site_fract_y
_atom_site_fract_z
Si Si1 0.679181 0.179181 0.436054
Si Si2 0.837173 0.103369 0.432983
Si Si3 0.727863 0.000000 0.250000
Si Si4 0.718011 0.553026 0.124002
Si Si5 0.000000 0.500000 0.619673
Si Si6 0.122313 0.377687 0.071626
Si Si7 0.111730 0.388271 0.686082
O O1 0.647219 0.147219 0.500000
O O2 0.768122 0.163058 0.436201
O O3 0.644825 0.144825 0.375864
O O4 0.869882 0.093572 0.500000
O O5 0.896884 0.143166 0.389325
O O6 0.797816 0.025649 0.411318
O O7 0.773523 0.033017 0.193712
O O8 0.675254 0.067930 0.275951
O O9 0.797225 0.592427 0.100491
O O10 0.057123 0.557123 0.583896
O O11 0.050862 0.449138 0.663325
O O12 0.131988 0.368012 0.000000
#
# Coordination Sequence:
#
# PCOD9572501 Si02
#       7
#    16  32  16  32   8  16  16
#     4  10  21  41  68  97 131 171 224 285 349 403
#     4  11  23  44  70 100 135 175 230 289 345 402
#     4  12  24  43  66  95 144 178 234 268 328 423
#     4  12  26  44  67 101 135 185 227 280 344 404
#     4  12  21  37  62  98 136 173 219 274 350 400
#     4  12  23  42  68 105 139 171 227 291 352 411
#     4  12  22  42  65  99 133 189 221 275 337 406
#
# _framework density 19.932580999999999
#
# number of rings (size 3 to 8) (size 9 to 14) (size 15 to 20)
#    0.000    0.471    4.706    4.412    0.000    5.176 
#    0.000    2.353    0.000    1.412    0.000    0.000 
#    0.000    0.000    0.000    0.000    0.000    0.000 
#
# Total GULP energy -379923.915575 kJ/mol
# GULP energy per Si atom -5587.116406 kJ/mol
# Density = 1.988721 g / cm^3
# Si number density = 19.932581 Si / 1000 Ang^3
#
#
#
# Elastic Constant Matrix: (Units=GPa)
#
#
# Indices 1 2 3 4 5 6 
#
# 1 48.0311 64.6893 45.2582 0.0000 0.0000 0.0000
# 2 64.6893 48.0311 45.2582 0.0000 0.0000 0.0000
# 3 45.2582 45.2582 176.8652 0.0000 0.0000 0.0000
# 4 0.0000 0.0000 0.0000 12.3987 0.0000 0.0000
# 5 0.0000 0.0000 0.0000 0.0000 12.3987 0.0000
# 6 0.0000 0.0000 0.0000 0.0000 0.0000 50.2422
#
#
#
# Elastic Compliance Matrix: (Units=1/GPa)
#
#
# Indices 1 2 3 4 5 6 
#
# 1 -0.024432 0.035598 -0.002857 0.000000 0.000000 0.000000
# 2 0.035598 -0.024432 -0.002857 0.000000 0.000000 0.000000
# 3 -0.002857 -0.002857 0.007116 0.000000 0.000000 0.000000
# 4 0.000000 0.000000 0.000000 0.080654 0.000000 0.000000
# 5 0.000000 0.000000 0.000000 0.000000 0.080654 0.000000
# 6 0.000000 0.000000 0.000000 0.000000 0.000000 0.019904
#
#
# Mechanical properties :
#
#
# Convention : Reuss Voigt Hill
#
# Bulk Modulus (GPa) = 55.49653 64.81544 60.15598
# Shear Modulus (GPa) = 58.34204 22.85602 40.59903
#
# Velocity S-wave (km/s) = 5.41602 3.38992 4.51801
# Velocity P-wave (km/s) = 8.18618 6.92171 7.58035
#
# Compressibility (1/GPa) = 0.01801915
#
# Stress axis : x y z
#
# Youngs Moduli (GPa) = -40.92934 -40.92934 140.52204
#
# Poissons Ratio (x) = 1.45701 0.40151
# Poissons Ratio (y) = 1.45701 0.40151
# Poissons Ratio (z) = -0.11695 -0.11695
#
# Static dielectric constant tensor:
#      x y z
#    x 1.710020 0.000000 0.000000 
#    y 0.000000 1.710020 0.000000 
#    z 0.000000 0.000000 1.706060 
# 
# From -- ./inp_files/8171.got.cif
#   From: 2010.05.17/outbox.cif.g08.bks.cpg/sg140_5_cif.got.tgz:8171.got - 2010.06.21 00:45:31.
