data_PCOD9572056
_publ_section_title
;
Structure prediction by ZEFSAII (Michael W. Deem and Ramdas Pophale) SiO2 
 PCOD9572056
Probable space group: I 4/M C M
;
_chemical_formula_sum "Si O2"
_cell_formula_units_Z 192
_cell_length_a 18.065342
_cell_length_b 18.065342
_cell_length_c 27.615918
_cell_angle_alpha 90.000000
_cell_angle_beta 90.000000
_cell_angle_gamma 90.000000
_cell_volume 9012.636596
_symmetry_space_group_name_H-M "I 4/M C M"
_symmetry_group_IT_number 140
_symmetry_cell_setting 'tetragonal'
loop_
_space_group_symop_operation_xyz
x,y,z
-y,x,z
-x,-y,z
y,-x,z
x,-y,1/2-z
-x,y,1/2-z
y,x,1/2-z
-y,-x,1/2-z
-x,-y,-z
y,-x,-z
x,y,-z
-y,x,-z
-x,y,1/2+z
x,-y,1/2+z
-y,-x,1/2+z
y,x,1/2+z
1/2+x,1/2+y,1/2+z
1/2-y,1/2+x,1/2+z
1/2-x,1/2-y,1/2+z
1/2+y,1/2-x,1/2+z
1/2+x,1/2-y,-z
1/2-x,1/2+y,-z
1/2+y,1/2+x,-z
1/2-y,1/2-x,-z
1/2-x,1/2-y,1/2-z
1/2+y,1/2-x,1/2-z
1/2+x,1/2+y,1/2-z
1/2-y,1/2+x,1/2-z
1/2-x,1/2+y,z
1/2+x,1/2-y,z
1/2-y,1/2-x,z
1/2+y,1/2+x,z
loop_
_atom_site_type_symbol
_atom_site_label
_atom_site_fract_x
_atom_site_fract_y
_atom_site_fract_z
Si Si1 0.379265 0.483469 0.327367
Si Si2 0.468848 0.153696 0.103940
Si Si3 0.472742 0.151644 0.000000
Si Si4 0.892460 0.188281 0.101634
Si Si5 0.295153 0.322459 0.802230
Si Si6 0.528231 0.215313 0.199640
Si Si7 0.654347 0.278617 0.500000
O O1 0.440381 0.421179 0.315163
O O2 0.359521 0.465377 0.383911
O O3 0.296686 0.487593 0.305254
O O4 0.419094 0.080907 0.105981
O O5 0.414756 0.225401 0.102572
O O6 0.512106 0.165825 0.153165
O O7 0.511451 0.154398 0.052310
O O8 0.422213 0.077788 0.000000
O O9 0.413985 0.219666 0.000000
O O10 0.839560 0.173690 0.147566
O O11 0.855431 0.175646 0.049666
O O12 0.333481 0.333481 0.750000
O O13 0.258186 0.241815 0.801377
O O14 0.234409 0.386102 0.801660
O O15 0.500000 0.182749 0.250000
O O16 0.728754 0.228754 0.500000
#
# Coordination Sequence:
#
# PCOD9572056 Si02
#       7
#    32  32  16  32  32  32  16
#     4  10  20  35  53  73 111 154 192 232 270 331
#     4   9  17  32  55  81 109 142 185 240 286 339
#     4   7  12  26  51  79 103 134 180 230 284 328
#     4  10  18  33  54  79 107 140 186 229 286 336
#     4  11  22  37  56  79 108 142 184 239 293 340
#     4  11  23  34  52  81 112 147 191 229 284 355
#     4   9  16  28  51  80 104 137 182 235 284 335
#
# _framework density 21.303421
#
# number of rings (size 3 to 8) (size 9 to 14) (size 15 to 20)
#    0.000    2.167    1.667    4.500    0.000    2.000 
#    0.000    2.500    0.000    1.500    0.000    1.167 
#    0.000    2.000    0.000    0.000    0.000    0.000 
#
# Total GULP energy -534601.463198 kJ/mol
# GULP energy per Si atom -5568.765242 kJ/mol
# Density = 2.125493 g / cm^3
# Si number density = 21.303421 Si / 1000 Ang^3
#
#
#
# Elastic Constant Matrix: (Units=GPa)
#
#
# Indices 1 2 3 4 5 6 
#
# 1 19.2789 21.3534 33.0039 0.0000 0.0000 0.0000
# 2 21.3534 19.2797 33.0047 0.0000 0.0000 0.0000
# 3 33.0039 33.0047 219.3348 0.0000 0.0000 0.0000
# 4 0.0000 0.0000 0.0000 21.2393 0.0000 0.0000
# 5 0.0000 0.0000 0.0000 0.0000 21.2393 0.0000
# 6 0.0000 0.0000 0.0000 0.0000 0.0000 26.2264
#
#
#
# Elastic Compliance Matrix: (Units=1/GPa)
#
#
# Indices 1 2 3 4 5 6 
#
# 1 -0.224785 0.257355 -0.004902 0.000000 0.000000 0.000000
# 2 0.257355 -0.224777 -0.004901 0.000000 0.000000 0.000000
# 3 -0.004902 -0.004901 0.006034 0.000000 0.000000 0.000000
# 4 0.000000 0.000000 0.000000 0.047082 0.000000 0.000000
# 5 0.000000 0.000000 0.000000 0.000000 0.047083 0.000000
# 6 0.000000 0.000000 0.000000 0.000000 0.000000 0.038129
#
#
# Mechanical properties :
#
#
# Convention : Reuss Voigt Hill
#
# Bulk Modulus (GPa) = 19.38925 48.06861 33.72893
# Shear Modulus (GPa) = -6.33597 25.10977 9.38690
#
# Velocity S-wave (km/s) = -1.72644 3.43691 2.10139
# Velocity P-wave (km/s) = 2.26872 6.19375 4.66421
#
# Compressibility (1/GPa) = 0.05157497
#
# Stress axis : x y z
#
# Youngs Moduli (GPa) = -4.44869 -4.44884 165.71871
#
# Poissons Ratio (x) = 1.14493 0.81231
# Poissons Ratio (y) = 1.14489 0.81221
# Poissons Ratio (z) = -0.02181 -0.02180
#
# Static dielectric constant tensor:
#      x y z
#    x 1.819300 0.000000 0.000000 
#    y 0.000000 1.819300 0.000000 
#    z 0.000000 0.000000 1.826760 
# 
# From -- ./inp_files/10910.got.cif
#   From: 2010.05.17/outbox.cif.g08.bks.cpg/sg140_6_cif.got.tgz:10910.got - 2010.06.21 00:45:31.
