data_PCOD9572606
_publ_section_title
;
Structure prediction by ZEFSAII (Michael W. Deem and Ramdas Pophale) SiO2 
 PCOD9572606
Probable space group: I 4/M C M
;
_chemical_formula_sum "Si O2"
_cell_formula_units_Z 128
_cell_length_a 18.848827
_cell_length_b 18.848827
_cell_length_c 23.462814
_cell_angle_alpha 90.000000
_cell_angle_beta 90.000000
_cell_angle_gamma 90.000000
_cell_volume 8335.828185
_symmetry_space_group_name_H-M "I 4/M C M"
_symmetry_group_IT_number 140
_symmetry_cell_setting 'tetragonal'
loop_
_space_group_symop_operation_xyz
x,y,z
-y,x,z
-x,-y,z
y,-x,z
x,-y,1/2-z
-x,y,1/2-z
y,x,1/2-z
-y,-x,1/2-z
-x,-y,-z
y,-x,-z
x,y,-z
-y,x,-z
-x,y,1/2+z
x,-y,1/2+z
-y,-x,1/2+z
y,x,1/2+z
1/2+x,1/2+y,1/2+z
1/2-y,1/2+x,1/2+z
1/2-x,1/2-y,1/2+z
1/2+y,1/2-x,1/2+z
1/2+x,1/2-y,-z
1/2-x,1/2+y,-z
1/2+y,1/2+x,-z
1/2-y,1/2-x,-z
1/2-x,1/2-y,1/2-z
1/2+y,1/2-x,1/2-z
1/2+x,1/2+y,1/2-z
1/2-y,1/2+x,1/2-z
1/2-x,1/2+y,z
1/2+x,1/2-y,z
1/2-y,1/2-x,z
1/2+y,1/2+x,z
loop_
_atom_site_type_symbol
_atom_site_label
_atom_site_fract_x
_atom_site_fract_y
_atom_site_fract_z
Si Si1 0.514595 0.800362 0.631212
Si Si2 0.139878 0.760619 0.434399
Si Si3 0.059772 0.440229 0.935472
Si Si4 0.758028 0.621844 0.565642
Si Si5 0.500000 0.120858 0.750000
O O1 0.579001 0.749494 0.612212
O O2 0.529441 0.871515 0.595056
O O3 0.441541 0.766607 0.609649
O O4 0.511100 0.828860 0.695423
O O5 0.112407 0.761257 0.500000
O O6 0.194125 0.694125 0.430061
O O7 0.187968 0.830400 0.426495
O O8 0.000000 0.500000 0.934625
O O9 0.078022 0.421979 0.000000
O O10 0.758572 0.595301 0.500000
O O11 0.824440 0.675561 0.571249
O O12 0.432157 0.067844 0.757098
#
# Coordination Sequence:
#
# PCOD9572606 Si02
#       5
#    32  32  16  32  16
#     4  12  20  32  50  70  99 139 172 201 249 308
#     4   9  17  31  50  73  99 128 165 211 264 313
#     4  11  20  28  46  76  99 118 158 211 256 309
#     4   9  18  31  49  74 102 127 160 214 270 311
#     4  11  22  34  46  68 108 145 172 202 248 301
#
# _framework density 15.355403000000001
#
# number of rings (size 3 to 8) (size 9 to 14) (size 15 to 20)
#    0.000    1.750    2.500    6.000    0.000    2.000 
#    0.000    1.250    0.000    5.250    0.000    3.500 
#    0.000    2.000    0.000    0.000    0.000    0.000 
#
# Total GULP energy -357042.465875 kJ/mol
# GULP energy per Si atom -5578.788529 kJ/mol
# Density = 1.532045 g / cm^3
# Si number density = 15.355403 Si / 1000 Ang^3
#
#
#
# Elastic Constant Matrix: (Units=GPa)
#
#
# Indices 1 2 3 4 5 6 
#
# 1 64.1916 31.2187 44.7967 0.0000 0.0000 0.0000
# 2 31.2187 64.1912 44.7962 0.0000 0.0000 0.0000
# 3 44.7967 44.7962 124.6700 0.0000 0.0000 0.0000
# 4 0.0000 0.0000 0.0000 29.6643 0.0000 0.0000
# 5 0.0000 0.0000 0.0000 0.0000 29.6645 0.0000
# 6 0.0000 0.0000 0.0000 0.0000 0.0000 22.2430
#
#
#
# Elastic Compliance Matrix: (Units=1/GPa)
#
#
# Indices 1 2 3 4 5 6 
#
# 1 0.023073 -0.007255 -0.005684 0.000000 0.000000 0.000000
# 2 -0.007255 0.023073 -0.005684 0.000000 0.000000 0.000000
# 3 -0.005684 -0.005684 0.012106 0.000000 0.000000 0.000000
# 4 0.000000 0.000000 0.000000 0.033711 0.000000 0.000000
# 5 0.000000 0.000000 0.000000 0.000000 0.033710 0.000000
# 6 0.000000 0.000000 0.000000 0.000000 0.000000 0.044958
#
#
# Mechanical properties :
#
#
# Convention : Reuss Voigt Hill
#
# Bulk Modulus (GPa) = 47.60284 54.96398 51.28341
# Shear Modulus (GPa) = 23.26895 25.13046 24.19970
#
# Velocity S-wave (km/s) = 3.89698 4.04986 3.97416
# Velocity P-wave (km/s) = 7.16356 7.59874 7.38436
#
# Compressibility (1/GPa) = 0.02100715
#
# Stress axis : x y z
#
# Youngs Moduli (GPa) = 43.34021 43.34022 82.60483
#
# Poissons Ratio (x) = 0.31443 0.46952
# Poissons Ratio (y) = 0.31443 0.46951
# Poissons Ratio (z) = 0.24634 0.24634
#
# Static dielectric constant tensor:
#      x y z
#    x 1.509880 0.000000 0.000000 
#    y 0.000000 1.509890 0.000000 
#    z 0.000000 0.000000 1.520550 
# 
# From -- ./inp_files/9305.got.cif
#   From: 2010.05.17/outbox.cif.g08.bks.cpg/sg140_5_cif.got.tgz:9305.got - 2010.06.21 00:45:31.
