data_PCOD9572199
_publ_section_title
;
Structure prediction by ZEFSAII (Michael W. Deem and Ramdas Pophale) SiO2 
 PCOD9572199
Probable space group: I 4/M C M
;
_chemical_formula_sum "Si O2"
_cell_formula_units_Z 192
_cell_length_a 26.298058
_cell_length_b 26.298058
_cell_length_c 15.303403
_cell_angle_alpha 90.000000
_cell_angle_beta 90.000000
_cell_angle_gamma 90.000000
_cell_volume 10583.647648
_symmetry_space_group_name_H-M "I 4/M C M"
_symmetry_group_IT_number 140
_symmetry_cell_setting 'tetragonal'
loop_
_space_group_symop_operation_xyz
x,y,z
-y,x,z
-x,-y,z
y,-x,z
x,-y,1/2-z
-x,y,1/2-z
y,x,1/2-z
-y,-x,1/2-z
-x,-y,-z
y,-x,-z
x,y,-z
-y,x,-z
-x,y,1/2+z
x,-y,1/2+z
-y,-x,1/2+z
y,x,1/2+z
1/2+x,1/2+y,1/2+z
1/2-y,1/2+x,1/2+z
1/2-x,1/2-y,1/2+z
1/2+y,1/2-x,1/2+z
1/2+x,1/2-y,-z
1/2-x,1/2+y,-z
1/2+y,1/2+x,-z
1/2-y,1/2-x,-z
1/2-x,1/2-y,1/2-z
1/2+y,1/2-x,1/2-z
1/2+x,1/2+y,1/2-z
1/2-y,1/2+x,1/2-z
1/2-x,1/2+y,z
1/2+x,1/2-y,z
1/2-y,1/2-x,z
1/2+y,1/2+x,z
loop_
_atom_site_type_symbol
_atom_site_label
_atom_site_fract_x
_atom_site_fract_y
_atom_site_fract_z
Si Si1 0.740957 0.844062 0.000000
Si Si2 0.622575 0.208669 0.152179
Si Si3 0.425646 0.366749 0.107004
Si Si4 0.409399 0.747085 0.666862
Si Si5 0.855049 0.959577 0.605489
Si Si6 0.760409 0.481216 0.395866
Si Si7 0.177603 0.763803 0.500000
O O1 0.734057 0.877648 0.084630
O O2 0.797199 0.818718 0.000000
O O3 0.700961 0.799040 0.000000
O O4 0.659777 0.159777 0.149639
O O5 0.618115 0.233111 0.247246
O O6 0.564386 0.200572 0.121653
O O7 0.645127 0.250135 0.084759
O O8 0.412570 0.313785 0.153976
O O9 0.388377 0.411988 0.135004
O O10 0.484962 0.377540 0.127608
O O11 0.423119 0.359884 0.000000
O O12 0.466778 0.767897 0.656393
O O13 0.854686 0.956032 0.500000
O O14 0.795814 0.960950 0.632058
O O15 0.758134 0.492448 0.500000
O O16 0.223245 0.723245 0.500000
#
# Coordination Sequence:
#
# PCOD9572199 Si02
#       7
#    16  32  32  32  32  32  16
#     4  11  22  37  56  80 121 157 191 238 288 341
#     4  11  23  39  60  85 116 152 195 238 287 343
#     4   9  16  30  48  75 109 149 196 242 293 342
#     4  11  21  36  57  85 116 151 192 239 292 347
#     4   8  16  27  48  74 103 147 195 238 291 339
#     4  10  19  36  59  83 113 153 193 236 288 346
#     4   9  22  39  54  80 114 157 198 239 282 324
#
# _framework density 18.141193999999999
#
# number of rings (size 3 to 8) (size 9 to 14) (size 15 to 20)
#    0.000    2.167    2.500    2.000    2.333    1.000 
#    0.000    4.167    0.000    0.000    0.000    0.000 
#    0.000   17.333    0.000    0.333    0.000    1.667 
#
# Total GULP energy -535991.547368 kJ/mol
# GULP energy per Si atom -5583.245285 kJ/mol
# Density = 1.809990 g / cm^3
# Si number density = 18.141194 Si / 1000 Ang^3
#
#
#
# Elastic Constant Matrix: (Units=GPa)
#
#
# Indices 1 2 3 4 5 6 
#
# 1 92.9309 53.8646 31.4919 0.0000 0.0000 0.0000
# 2 53.8646 92.9325 31.4921 0.0000 0.0000 0.0000
# 3 31.4919 31.4921 94.1380 0.0000 0.0000 0.0000
# 4 0.0000 0.0000 0.0000 -8.7183 0.0000 0.0000
# 5 0.0000 0.0000 0.0000 0.0000 -8.6903 0.0000
# 6 0.0000 0.0000 0.0000 0.0000 0.0000 33.0736
#
#
#
# Elastic Compliance Matrix: (Units=1/GPa)
#
#
# Indices 1 2 3 4 5 6 
#
# 1 0.016776 -0.008822 -0.002661 0.000000 0.000000 0.000000
# 2 -0.008822 0.016775 -0.002661 0.000000 0.000000 0.000000
# 3 -0.002661 -0.002661 0.012403 0.000000 0.000000 0.000000
# 4 0.000000 0.000000 0.000000 -0.114701 0.000000 0.000000
# 5 0.000000 0.000000 0.000000 0.000000 -0.115071 0.000000
# 6 0.000000 0.000000 0.000000 0.000000 0.000000 0.030236
#
#
# Mechanical properties :
#
#
# Convention : Reuss Voigt Hill
#
# Bulk Modulus (GPa) = 56.60149 57.07761 56.83955
# Shear Modulus (GPa) = -41.87346 14.00987 -13.93180
#
# Velocity S-wave (km/s) = -4.80958 2.78199 -2.77422
# Velocity P-wave (km/s) = 0.65229 6.46920 4.59761
#
# Compressibility (1/GPa) = 0.01766738
#
# Stress axis : x y z
#
# Youngs Moduli (GPa) = 59.61064 59.61171 80.62619
#
# Poissons Ratio (x) = 0.52587 0.21453
# Poissons Ratio (y) = 0.52586 0.21453
# Poissons Ratio (z) = 0.15861 0.15861
#
# Static dielectric constant tensor:
#      x y z
#    x 1.627920 0.000000 0.000000 
#    y 0.000000 1.627920 0.000000 
#    z 0.000000 0.000000 1.663260 
# 
# From -- ./inp_files/5221.got.cif
#   From: 2010.05.17/outbox.cif.g08.bks.cpg/sg140_3_cif.got.tgz:5221.got - 2010.06.21 00:45:31.
