data_PCOD9572607
_publ_section_title
;
Structure prediction by ZEFSAII (Michael W. Deem and Ramdas Pophale) SiO2 
 PCOD9572607
Probable space group: I 4/M C M
;
_chemical_formula_sum "Si O2"
_cell_formula_units_Z 144
_cell_length_a 23.737125
_cell_length_b 23.737125
_cell_length_c 15.633488
_cell_angle_alpha 90.000000
_cell_angle_beta 90.000000
_cell_angle_gamma 90.000000
_cell_volume 8808.706061
_symmetry_space_group_name_H-M "I 4/M C M"
_symmetry_group_IT_number 140
_symmetry_cell_setting 'tetragonal'
loop_
_space_group_symop_operation_xyz
x,y,z
-y,x,z
-x,-y,z
y,-x,z
x,-y,1/2-z
-x,y,1/2-z
y,x,1/2-z
-y,-x,1/2-z
-x,-y,-z
y,-x,-z
x,y,-z
-y,x,-z
-x,y,1/2+z
x,-y,1/2+z
-y,-x,1/2+z
y,x,1/2+z
1/2+x,1/2+y,1/2+z
1/2-y,1/2+x,1/2+z
1/2-x,1/2-y,1/2+z
1/2+y,1/2-x,1/2+z
1/2+x,1/2-y,-z
1/2-x,1/2+y,-z
1/2+y,1/2+x,-z
1/2-y,1/2-x,-z
1/2-x,1/2-y,1/2-z
1/2+y,1/2-x,1/2-z
1/2+x,1/2+y,1/2-z
1/2-y,1/2+x,1/2-z
1/2-x,1/2+y,z
1/2+x,1/2-y,z
1/2-y,1/2-x,z
1/2+y,1/2+x,z
loop_
_atom_site_type_symbol
_atom_site_label
_atom_site_fract_x
_atom_site_fract_y
_atom_site_fract_z
Si Si1 0.046333 0.453668 0.395748
Si Si2 0.196002 0.207138 0.848346
Si Si3 0.715391 0.123534 0.371359
Si Si4 0.112290 0.296022 0.833820
Si Si5 0.994449 0.332027 0.902083
O O1 0.049513 0.450488 0.500000
O O2 0.027064 0.392060 0.365700
O O3 0.000000 0.500000 0.372910
O O4 0.188181 0.188181 0.750000
O O5 0.244042 0.255959 0.847418
O O6 0.226599 0.155274 0.894509
O O7 0.140094 0.240249 0.876343
O O8 0.663252 0.163252 0.400028
O O9 0.711336 0.121043 0.267960
O O10 0.707360 0.060371 0.402055
O O11 0.149933 0.350068 0.860315
O O12 0.047532 0.306974 0.853231
O O13 0.012873 0.341626 0.000000
#
# Coordination Sequence:
#
# PCOD9572607 Si02
#       5
#    16  32  32  32  32
#     4   9  18  30  40  50  73 116 157 181 204 236
#     4   7  12  25  45  65  80 102 133 177 226 266
#     4   9  16  29  47  63  83 107 143 182 220 258
#     4   9  17  29  46  64  83 108 144 183 222 256
#     4  11  20  29  41  59  87 119 149 177 213 256
#
# _framework density 16.347463999999999
#
# number of rings (size 3 to 8) (size 9 to 14) (size 15 to 20)
#    0.000    3.000    1.111    4.000    0.000    1.333 
#    0.000    1.111    0.000    4.000    0.000    0.000 
#    0.000    0.889    0.000   10.222    0.000    4.000 
#
# Total GULP energy -401007.869017 kJ/mol
# GULP energy per Si atom -5569.553736 kJ/mol
# Density = 1.631026 g / cm^3
# Si number density = 16.347464 Si / 1000 Ang^3
#
#
#
# Elastic Constant Matrix: (Units=GPa)
#
#
# Indices 1 2 3 4 5 6 
#
# 1 97.4240 71.6762 14.0573 0.0000 0.0000 0.0000
# 2 71.6762 97.4239 14.0573 0.0000 0.0000 0.0000
# 3 14.0573 14.0573 28.1352 0.0000 0.0000 0.0000
# 4 0.0000 0.0000 0.0000 0.9793 0.0000 0.0000
# 5 0.0000 0.0000 0.0000 0.0000 0.9793 0.0000
# 6 0.0000 0.0000 0.0000 0.0000 0.0000 26.8647
#
#
#
# Elastic Compliance Matrix: (Units=1/GPa)
#
#
# Indices 1 2 3 4 5 6 
#
# 1 0.022644 -0.016194 -0.003222 0.000000 0.000000 0.000000
# 2 -0.016194 0.022644 -0.003222 0.000000 0.000000 0.000000
# 3 -0.003222 -0.003222 0.038763 0.000000 0.000000 0.000000
# 4 0.000000 0.000000 0.000000 1.021162 0.000000 0.000000
# 5 0.000000 0.000000 0.000000 0.000000 1.021089 0.000000
# 6 0.000000 0.000000 0.000000 0.000000 0.000000 0.037224
#
#
# Mechanical properties :
#
#
# Convention : Reuss Voigt Hill
#
# Bulk Modulus (GPa) = 25.79173 46.95164 36.37168
# Shear Modulus (GPa) = 2.25050 13.97747 8.11399
#
# Velocity S-wave (km/s) = 1.17459 2.92725 2.23030
# Velocity P-wave (km/s) = 4.20131 6.34102 5.37864
#
# Compressibility (1/GPa) = 0.03877211
#
# Stress axis : x y z
#
# Youngs Moduli (GPa) = 44.16210 44.16202 25.79801
#
# Poissons Ratio (x) = 0.71518 0.08313
# Poissons Ratio (y) = 0.71518 0.08313
# Poissons Ratio (z) = 0.14230 0.14231
#
# Static dielectric constant tensor:
#      x y z
#    x 1.554510 0.000000 0.000000 
#    y 0.000000 1.554510 0.000000 
#    z 0.000000 0.000000 1.617530 
# 
# From -- ./inp_files/8529.got.cif
#   From: 2010.05.17/outbox.cif.g08.bks.cpg/sg140_5_cif.got.tgz:8529.got - 2010.06.21 00:45:31.
