data_PCOD9572862
_publ_section_title
;
Structure prediction by ZEFSAII (Michael W. Deem and Ramdas Pophale) SiO2 
 PCOD9572862
Probable space group: I 41/A M D
;
_chemical_formula_sum "Si O2"
_cell_formula_units_Z 160
_cell_length_a 21.570846
_cell_length_b 21.570846
_cell_length_c 19.272590
_cell_angle_alpha 90.000000
_cell_angle_beta 90.000000
_cell_angle_gamma 90.000000
_cell_volume 8967.563054
_symmetry_space_group_name_H-M "I 41/A M D"
_symmetry_group_IT_number 141
_space_group.IT_coordinate_system_code '2'
_symmetry_cell_setting 'tetragonal'
loop_
_space_group_symop_operation_xyz
x,y,z
1/4-y,3/4+x,1/4+z
-x,1/2-y,z
1/4+y,1/4-x,3/4+z
x,-y,-z
-x,1/2+y,-z
1/4+y,3/4+x,1/4-z
1/4-y,1/4-x,3/4-z
-x,-y,-z
3/4+y,1/4-x,3/4-z
x,1/2+y,-z
3/4-y,3/4+x,1/4-z
-x,y,z
x,1/2-y,z
3/4-y,1/4-x,3/4+z
3/4+y,3/4+x,1/4+z
1/2+x,1/2+y,1/2+z
3/4-y,1/4+x,3/4+z
1/2-x,-y,1/2+z
3/4+y,3/4-x,1/4+z
1/2+x,1/2-y,1/2-z
1/2-x,y,1/2-z
3/4+y,1/4+x,3/4-z
3/4-y,3/4-x,1/4-z
1/2-x,1/2-y,1/2-z
1/4+y,3/4-x,1/4-z
1/2+x,y,1/2-z
1/4-y,1/4+x,3/4-z
1/2-x,1/2+y,1/2+z
1/2+x,-y,1/2+z
1/4-y,3/4-x,1/4+z
1/4+y,1/4+x,3/4+z
loop_
_atom_site_type_symbol
_atom_site_label
_atom_site_fract_x
_atom_site_fract_y
_atom_site_fract_z
Si Si1 0.427554 0.610102 0.312279
Si Si2 0.500000 0.407322 0.934437
Si Si3 0.640447 0.132458 0.408029
Si Si4 0.710838 0.874410 0.915954
Si Si5 0.500000 0.056944 0.086976
Si Si6 0.073274 0.538514 0.814207
O O1 0.500000 0.626177 0.312526
O O2 0.393043 0.643043 0.375000
O O3 0.400467 0.626486 0.236581
O O4 0.422700 0.535701 0.321363
O O5 0.440026 0.381519 0.894795
O O6 0.500000 0.482334 0.925998
O O7 0.500000 0.402279 0.017368
O O8 0.714779 0.121746 0.408879
O O9 0.601686 0.075142 0.378758
O O10 0.680978 0.930978 0.875000
O O11 0.684498 0.812587 0.879624
O O12 0.695188 0.864947 0.996806
O O13 0.000000 0.553072 0.803197
#
# Coordination Sequence:
#
# PCOD9572862 Si02
#       6
#    32  16  32  32  16  32
#     4  10  22  41  62  83 111 147 190 239 288 341
#     4   9  16  30  53  80 108 142 189 231 261 320
#     4  10  20  36  58  83 112 148 190 234 280 337
#     4  10  19  33  55  83 115 151 190 230 274 334
#     4   9  16  28  50  79 109 149 187 218 268 324
#     4  10  21  38  57  82 119 154 183 229 293 342
#
# _framework density 17.842082999999999
#
# number of rings (size 3 to 8) (size 9 to 14) (size 15 to 20)
#    0.000    2.200    2.000    1.200    0.000    5.000 
#    0.000    6.500    0.000    0.300    0.000    0.000 
#    0.000    0.000    0.000    0.000    0.000    0.000 
#
# Total GULP energy -446069.444974 kJ/mol
# GULP energy per Si atom -5575.868062 kJ/mol
# Density = 1.780147 g / cm^3
# Si number density = 17.842083 Si / 1000 Ang^3
#
#
#
# Elastic Constant Matrix: (Units=GPa)
#
#
# Indices 1 2 3 4 5 6 
#
# 1 39.0481 31.9629 48.9231 0.0000 0.0000 0.0000
# 2 31.9629 39.0481 48.9231 0.0000 0.0000 0.0000
# 3 48.9231 48.9231 144.0280 0.0000 0.0000 0.0000
# 4 0.0000 0.0000 0.0000 30.2746 0.0000 0.0000
# 5 0.0000 0.0000 0.0000 0.0000 30.2746 0.0000
# 6 0.0000 0.0000 0.0000 0.0000 0.0000 78.9884
#
#
#
# Elastic Compliance Matrix: (Units=1/GPa)
#
#
# Indices 1 2 3 4 5 6 
#
# 1 0.083806 -0.057333 -0.008992 0.000000 0.000000 0.000000
# 2 -0.057333 0.083806 -0.008992 0.000000 0.000000 0.000000
# 3 -0.008992 -0.008992 0.013052 0.000000 0.000000 0.000000
# 4 0.000000 0.000000 0.000000 0.033031 0.000000 0.000000
# 5 0.000000 0.000000 0.000000 0.000000 0.033031 0.000000
# 6 0.000000 0.000000 0.000000 0.000000 0.000000 0.012660
#
#
# Mechanical properties :
#
#
# Convention : Reuss Voigt Hill
#
# Bulk Modulus (GPa) = 33.30156 53.52693 43.41424
# Shear Modulus (GPa) = 11.90392 34.06188 22.98290
#
# Velocity S-wave (km/s) = 2.58579 4.37404 3.59294
# Velocity P-wave (km/s) = 5.25549 7.45487 6.44962
#
# Compressibility (1/GPa) = 0.03002862
#
# Stress axis : x y z
#
# Youngs Moduli (GPa) = 11.93236 11.93236 76.61669
#
# Poissons Ratio (x) = 0.68412 0.68895
# Poissons Ratio (y) = 0.68412 0.68895
# Poissons Ratio (z) = 0.10730 0.10730
#
# Static dielectric constant tensor:
#      x y z
#    x 1.601130 0.000000 0.000000 
#    y 0.000000 1.601130 0.000000 
#    z 0.000000 0.000000 1.606360 
# 
# From -- ./inp_files/8658.got.cif
#   From: 2010.05.17/outbox.cif.g08.bks.cpg/sg141_5_cif.got.tgz:8658.got - 2010.05.20 13:30:51.
