data_PCOD9572749
_publ_section_title
;
Structure prediction by ZEFSAII (Michael W. Deem and Ramdas Pophale) SiO2 
 PCOD9572749
Probable space group: I 41/A M D
;
_chemical_formula_sum "Si O2"
_cell_formula_units_Z 160
_cell_length_a 18.582442
_cell_length_b 18.582442
_cell_length_c 24.856640
_cell_angle_alpha 90.000000
_cell_angle_beta 90.000000
_cell_angle_gamma 90.000000
_cell_volume 8583.175534
_symmetry_space_group_name_H-M "I 41/A M D"
_symmetry_group_IT_number 141
_space_group.IT_coordinate_system_code '2'
_symmetry_cell_setting 'tetragonal'
loop_
_space_group_symop_operation_xyz
x,y,z
1/4-y,3/4+x,1/4+z
-x,1/2-y,z
1/4+y,1/4-x,3/4+z
x,-y,-z
-x,1/2+y,-z
1/4+y,3/4+x,1/4-z
1/4-y,1/4-x,3/4-z
-x,-y,-z
3/4+y,1/4-x,3/4-z
x,1/2+y,-z
3/4-y,3/4+x,1/4-z
-x,y,z
x,1/2-y,z
3/4-y,1/4-x,3/4+z
3/4+y,3/4+x,1/4+z
1/2+x,1/2+y,1/2+z
3/4-y,1/4+x,3/4+z
1/2-x,-y,1/2+z
3/4+y,3/4-x,1/4+z
1/2+x,1/2-y,1/2-z
1/2-x,y,1/2-z
3/4+y,1/4+x,3/4-z
3/4-y,3/4-x,1/4-z
1/2-x,1/2-y,1/2-z
1/4+y,3/4-x,1/4-z
1/2+x,y,1/2-z
1/4-y,1/4+x,3/4-z
1/2-x,1/2+y,1/2+z
1/2+x,-y,1/2+z
1/4-y,3/4-x,1/4+z
1/4+y,1/4+x,3/4+z
loop_
_atom_site_type_symbol
_atom_site_label
_atom_site_fract_x
_atom_site_fract_y
_atom_site_fract_z
Si Si1 0.418792 0.170123 0.884210
Si Si2 0.198425 0.068313 0.934828
Si Si3 0.170514 0.610499 0.775138
Si Si4 0.672358 0.601003 0.549844
Si Si5 0.914313 0.075535 0.330068
O O1 0.500000 0.171853 0.864350
O O2 0.399239 0.250000 0.904593
O O3 0.413884 0.110747 0.930888
O O4 0.370340 0.146376 0.834556
O O5 0.168592 0.081409 0.875000
O O6 0.283818 0.079769 0.943671
O O7 0.189249 0.982915 0.942671
O O8 0.164799 0.110454 0.985559
O O9 0.250000 0.622852 0.750000
O O10 0.114196 0.607060 0.726355
O O11 0.740872 0.644149 0.574103
O O12 0.866436 0.116436 0.375000
O O13 0.000000 0.084378 0.338419
#
# Coordination Sequence:
#
# PCOD9572749 Si02
#       5
#    32  32  32  32  32
#     4  11  24  39  55  78 116 160 197 235 285 350
#     4  10  17  33  62  89 114 136 181 243 301 335
#     4  11  20  36  61  84 114 146 193 244 289 334
#     4  10  19  35  59  85 110 153 188 238 290 353
#     4  11  22  35  54  83 116 156 198 240 285 338
#
# _framework density 18.641119
#
# number of rings (size 3 to 8) (size 9 to 14) (size 15 to 20)
#    0.000    1.400    6.000    3.000    0.000    1.400 
#    0.000    2.000    0.000    0.000    0.000    1.400 
#    0.000    0.000    0.000    0.000    0.000    0.000 
#
# Total GULP energy -445905.270594 kJ/mol
# GULP energy per Si atom -5573.815882 kJ/mol
# Density = 1.859869 g / cm^3
# Si number density = 18.641119 Si / 1000 Ang^3
#
#
#
# Elastic Constant Matrix: (Units=GPa)
#
#
# Indices 1 2 3 4 5 6 
#
# 1 48.7727 18.5252 30.5734 0.0000 0.0000 0.0000
# 2 18.5252 48.7727 30.5733 0.0000 0.0000 0.0000
# 3 30.5734 30.5733 128.4808 0.0000 0.0000 0.0000
# 4 0.0000 0.0000 0.0000 7.6118 0.0000 0.0000
# 5 0.0000 0.0000 0.0000 0.0000 7.6112 0.0000
# 6 0.0000 0.0000 0.0000 0.0000 0.0000 15.9188
#
#
#
# Elastic Compliance Matrix: (Units=1/GPa)
#
#
# Indices 1 2 3 4 5 6 
#
# 1 0.026009 -0.007051 -0.004511 0.000000 0.000000 0.000000
# 2 -0.007051 0.026009 -0.004511 0.000000 0.000000 0.000000
# 3 -0.004511 -0.004511 0.009930 0.000000 0.000000 0.000000
# 4 0.000000 0.000000 0.000000 0.131375 0.000000 0.000000
# 5 0.000000 0.000000 0.000000 0.000000 0.131385 0.000000
# 6 0.000000 0.000000 0.000000 0.000000 0.000000 0.062819
#
#
# Mechanical properties :
#
#
# Convention : Reuss Voigt Hill
#
# Bulk Modulus (GPa) = 33.55532 42.81890 38.18711
# Shear Modulus (GPa) = 11.63849 15.98534 13.81191
#
# Velocity S-wave (km/s) = 2.50140 2.93154 2.72497
# Velocity P-wave (km/s) = 5.13639 5.87185 5.51639
#
# Compressibility (1/GPa) = 0.02980154
#
# Stress axis : x y z
#
# Youngs Moduli (GPa) = 38.44757 38.44765 100.70201
#
# Poissons Ratio (x) = 0.27110 0.45430
# Poissons Ratio (y) = 0.27110 0.45430
# Poissons Ratio (z) = 0.17345 0.17345
#
# Static dielectric constant tensor:
#      x y z
#    x 1.643770 0.000000 0.000000 
#    y 0.000000 1.643770 0.000000 
#    z 0.000000 0.000000 1.708070 
# 
# From -- ./inp_files/12730.got.cif
#   From: 2010.05.17/outbox.cif.g08.bks.cpg/sg141_7_cif.got.tgz:12730.got - 2010.05.20 13:30:51.
