data_PCOD9572077
_publ_section_title
;
Structure prediction by ZEFSAII (Michael W. Deem and Ramdas Pophale) SiO2 
 PCOD9572077
Probable space group: I 4/M C M
;
_chemical_formula_sum "Si O2"
_cell_formula_units_Z 192
_cell_length_a 20.345341
_cell_length_b 20.345341
_cell_length_c 27.936181
_cell_angle_alpha 90.000000
_cell_angle_beta 90.000000
_cell_angle_gamma 90.000000
_cell_volume 11563.704428
_symmetry_space_group_name_H-M "I 4/M C M"
_symmetry_group_IT_number 140
_symmetry_cell_setting 'tetragonal'
loop_
_space_group_symop_operation_xyz
x,y,z
-y,x,z
-x,-y,z
y,-x,z
x,-y,1/2-z
-x,y,1/2-z
y,x,1/2-z
-y,-x,1/2-z
-x,-y,-z
y,-x,-z
x,y,-z
-y,x,-z
-x,y,1/2+z
x,-y,1/2+z
-y,-x,1/2+z
y,x,1/2+z
1/2+x,1/2+y,1/2+z
1/2-y,1/2+x,1/2+z
1/2-x,1/2-y,1/2+z
1/2+y,1/2-x,1/2+z
1/2+x,1/2-y,-z
1/2-x,1/2+y,-z
1/2+y,1/2+x,-z
1/2-y,1/2-x,-z
1/2-x,1/2-y,1/2-z
1/2+y,1/2-x,1/2-z
1/2+x,1/2+y,1/2-z
1/2-y,1/2+x,1/2-z
1/2-x,1/2+y,z
1/2+x,1/2-y,z
1/2-y,1/2-x,z
1/2+y,1/2+x,z
loop_
_atom_site_type_symbol
_atom_site_label
_atom_site_fract_x
_atom_site_fract_y
_atom_site_fract_z
Si Si1 0.109566 0.503265 0.301728
Si Si2 0.920292 0.691083 0.052975
Si Si3 0.360378 0.747078 0.352268
Si Si4 0.359720 0.746303 0.143272
Si Si5 0.949821 0.339357 0.900762
Si Si6 0.139635 0.746650 0.748058
O O1 0.144471 0.500000 0.250000
O O2 0.051904 0.448097 0.297343
O O3 0.147060 0.485057 0.349660
O O4 0.072836 0.572836 0.308123
O O5 0.870216 0.629785 0.056656
O O6 0.903569 0.738351 0.097445
O O7 0.994095 0.666102 0.060211
O O8 0.911273 0.720261 0.000000
O O9 0.303866 0.803866 0.348813
O O10 0.321624 0.680209 0.361923
O O11 0.409154 0.772643 0.392625
O O12 0.393750 0.745530 0.299607
O O13 0.303652 0.803652 0.145124
O O14 0.392939 0.746856 0.195969
O O15 0.898686 0.398686 0.909090
O O16 0.197826 0.802175 0.750000
O O17 0.176492 0.676492 0.748391
#
# Coordination Sequence:
#
# PCOD9572077 Si02
#       6
#    32  32  32  32  32  32
#     4   8  14  24  36  52  79 115 149 174 197 234
#     4  10  21  34  45  57  76 109 154 192 215 244
#     4   8  14  25  42  65  88 106 128 164 213 265
#     4   8  14  27  45  61  80 108 140 174 211 249
#     4  10  19  29  42  61  85 111 140 177 218 255
#     4   7  10  19  38  62  84 105 129 159 202 258
#
# _framework density 16.603676
#
# number of rings (size 3 to 8) (size 9 to 14) (size 15 to 20)
#    0.000    3.500    0.000    3.000    0.000    2.667 
#    0.000    6.667    0.000    3.000    0.000    0.000 
#    0.000    0.667    0.000    1.500    0.000   11.500 
#
# Total GULP energy -534405.023033 kJ/mol
# GULP energy per Si atom -5566.718990 kJ/mol
# Density = 1.656589 g / cm^3
# Si number density = 16.603676 Si / 1000 Ang^3
#
#
#
# Elastic Constant Matrix: (Units=GPa)
#
#
# Indices 1 2 3 4 5 6 
#
# 1 23.1075 19.4730 25.1887 0.0000 0.0000 0.0000
# 2 19.4730 23.1071 25.1892 0.0000 0.0000 0.0000
# 3 25.1887 25.1892 92.5537 0.0000 0.0000 0.0000
# 4 0.0000 0.0000 0.0000 18.0110 0.0000 0.0000
# 5 0.0000 0.0000 0.0000 0.0000 18.0109 0.0000
# 6 0.0000 0.0000 0.0000 0.0000 0.0000 13.2487
#
#
#
# Elastic Compliance Matrix: (Units=1/GPa)
#
#
# Indices 1 2 3 4 5 6 
#
# 1 0.154894 -0.120259 -0.009425 0.000000 0.000000 0.000000
# 2 -0.120259 0.154901 -0.009429 0.000000 0.000000 0.000000
# 3 -0.009425 -0.009429 0.015936 0.000000 0.000000 0.000000
# 4 0.000000 0.000000 0.000000 0.055522 0.000000 0.000000
# 5 0.000000 0.000000 0.000000 0.000000 0.055522 0.000000
# 6 0.000000 0.000000 0.000000 0.000000 0.000000 0.075479
#
#
# Mechanical properties :
#
#
# Convention : Reuss Voigt Hill
#
# Bulk Modulus (GPa) = 21.05066 30.94115 25.99590
# Shear Modulus (GPa) = 6.20105 14.44861 10.32483
#
# Velocity S-wave (km/s) = 1.93465 2.95313 2.49638
# Velocity P-wave (km/s) = 4.20670 5.50486 4.89897
#
# Compressibility (1/GPa) = 0.04750445
#
# Stress axis : x y z
#
# Youngs Moduli (GPa) = 6.45601 6.45575 62.75196
#
# Poissons Ratio (x) = 0.77636 0.59147
# Poissons Ratio (y) = 0.77639 0.59166
# Poissons Ratio (z) = 0.06085 0.06087
#
# Static dielectric constant tensor:
#      x y z
#    x 1.578540 0.000000 0.000000 
#    y 0.000000 1.578540 0.000000 
#    z 0.000000 0.000000 1.598390 
# 
# From -- ./inp_files/10861.got.cif
#   From: 2010.05.17/outbox.cif.g08.bks.cpg/sg140_6_cif.got.tgz:10861.got - 2010.06.21 00:45:31.
