data_PCOD9572605
_publ_section_title
;
Structure prediction by ZEFSAII (Michael W. Deem and Ramdas Pophale) SiO2 
 PCOD9572605
Probable space group: I 4/M C M
;
_chemical_formula_sum "Si O2"
_cell_formula_units_Z 128
_cell_length_a 19.152961
_cell_length_b 19.152961
_cell_length_c 17.240645
_cell_angle_alpha 90.000000
_cell_angle_beta 90.000000
_cell_angle_gamma 90.000000
_cell_volume 6324.487785
_symmetry_space_group_name_H-M "I 4/M C M"
_symmetry_group_IT_number 140
_symmetry_cell_setting 'tetragonal'
loop_
_space_group_symop_operation_xyz
x,y,z
-y,x,z
-x,-y,z
y,-x,z
x,-y,1/2-z
-x,y,1/2-z
y,x,1/2-z
-y,-x,1/2-z
-x,-y,-z
y,-x,-z
x,y,-z
-y,x,-z
-x,y,1/2+z
x,-y,1/2+z
-y,-x,1/2+z
y,x,1/2+z
1/2+x,1/2+y,1/2+z
1/2-y,1/2+x,1/2+z
1/2-x,1/2-y,1/2+z
1/2+y,1/2-x,1/2+z
1/2+x,1/2-y,-z
1/2-x,1/2+y,-z
1/2+y,1/2+x,-z
1/2-y,1/2-x,-z
1/2-x,1/2-y,1/2-z
1/2+y,1/2-x,1/2-z
1/2+x,1/2+y,1/2-z
1/2-y,1/2+x,1/2-z
1/2-x,1/2+y,z
1/2+x,1/2-y,z
1/2-y,1/2-x,z
1/2+y,1/2+x,z
loop_
_atom_site_type_symbol
_atom_site_label
_atom_site_fract_x
_atom_site_fract_y
_atom_site_fract_z
Si Si1 0.068136 0.903977 0.410237
Si Si2 0.026372 0.644449 0.659386
Si Si3 0.194061 0.694061 0.224268
Si Si4 0.931086 0.782590 0.199193
Si Si5 0.379435 0.879435 0.587268
O O1 0.082879 0.884019 0.500000
O O2 0.096395 0.850673 0.345476
O O3 0.983663 0.906193 0.400464
O O4 0.089732 0.589732 0.651305
O O5 0.045289 0.723837 0.638167
O O6 0.000000 0.640558 0.750000
O O7 0.960250 0.629410 0.607553
O O8 0.250000 0.750000 0.250000
O O9 0.124512 0.734049 0.255654
O O10 0.168994 0.668994 0.140703
O O11 0.000000 0.800143 0.250000
O O12 0.363356 0.863356 0.500000
#
# Coordination Sequence:
#
# PCOD9572605 Si02
#       5
#    32  32  16  32  16
#     4   9  21  42  66  96 132 167 212 278 342 390
#     4  11  19  37  64  93 133 177 217 266 328 397
#     4  12  26  45  65  98 134 178 222 268 335 405
#     4  11  22  39  66  93 126 175 223 264 328 403
#     4  12  25  42  66  99 129 173 230 284 332 392
#
# _framework density 20.238793000000001
#
# number of rings (size 3 to 8) (size 9 to 14) (size 15 to 20)
#    0.000    1.250    7.500    1.125    3.500    2.000 
#    0.000    3.125    0.000    0.000    0.000    0.000 
#    0.000    0.000    0.000    0.000    0.000    0.000 
#
# Total GULP energy -356387.245882 kJ/mol
# GULP energy per Si atom -5568.550717 kJ/mol
# Density = 2.019273 g / cm^3
# Si number density = 20.238793 Si / 1000 Ang^3
#
#
#
# Elastic Constant Matrix: (Units=GPa)
#
#
# Indices 1 2 3 4 5 6 
#
# 1 45.9180 -20.3007 16.8809 0.0000 0.0000 0.0000
# 2 -20.3007 45.9180 16.8809 0.0000 0.0000 0.0000
# 3 16.8809 16.8809 85.0746 0.0000 0.0000 0.0000
# 4 0.0000 0.0000 0.0000 13.2397 0.0000 0.0000
# 5 0.0000 0.0000 0.0000 0.0000 13.2397 0.0000
# 6 0.0000 0.0000 0.0000 0.0000 0.0000 38.6954
#
#
#
# Elastic Compliance Matrix: (Units=1/GPa)
#
#
# Indices 1 2 3 4 5 6 
#
# 1 0.033980 0.018879 -0.010489 0.000000 0.000000 0.000000
# 2 0.018879 0.033980 -0.010489 0.000000 0.000000 0.000000
# 3 -0.010489 -0.010489 0.015917 0.000000 0.000000 0.000000
# 4 0.000000 0.000000 0.000000 0.075531 0.000000 0.000000
# 5 0.000000 0.000000 0.000000 0.000000 0.075531 0.000000
# 6 0.000000 0.000000 0.000000 0.000000 0.000000 0.025843
#
#
# Mechanical properties :
#
#
# Convention : Reuss Voigt Hill
#
# Bulk Modulus (GPa) = 12.55005 22.64809 17.59907
# Shear Modulus (GPa) = 17.15040 23.93158 20.54099
#
# Velocity S-wave (km/s) = 2.91418 3.44242 3.18926
# Velocity P-wave (km/s) = 4.18780 5.19761 4.71979
#
# Compressibility (1/GPa) = 0.07968099
#
# Stress axis : x y z
#
# Youngs Moduli (GPa) = 29.42876 29.42876 62.82678
#
# Poissons Ratio (x) = -0.55558 0.65896
# Poissons Ratio (y) = -0.55558 0.65896
# Poissons Ratio (z) = 0.30867 0.30867
#
# Static dielectric constant tensor:
#      x y z
#    x 1.660250 0.000000 0.000000 
#    y 0.000000 1.660250 0.000000 
#    z 0.000000 0.000000 1.718320 
# 
# From -- ./inp_files/4397.got.cif
#   From: 2010.05.17/outbox.cif.g08.bks.cpg/sg140_3_cif.got.tgz:4397.got - 2010.06.21 00:45:31.
