data_PCOD9572826
_publ_section_title
;
Structure prediction by ZEFSAII (Michael W. Deem and Ramdas Pophale) SiO2 
 PCOD9572826
Probable space group: I 41/A M D
;
_chemical_formula_sum "Si O2"
_cell_formula_units_Z 160
_cell_length_a 28.130719
_cell_length_b 28.130719
_cell_length_c 9.396678
_cell_angle_alpha 90.000000
_cell_angle_beta 90.000000
_cell_angle_gamma 90.000000
_cell_volume 7435.942281
_symmetry_space_group_name_H-M "I 41/A M D"
_symmetry_group_IT_number 141
_space_group.IT_coordinate_system_code '2'
_symmetry_cell_setting 'tetragonal'
loop_
_space_group_symop_operation_xyz
x,y,z
1/4-y,3/4+x,1/4+z
-x,1/2-y,z
1/4+y,1/4-x,3/4+z
x,-y,-z
-x,1/2+y,-z
1/4+y,3/4+x,1/4-z
1/4-y,1/4-x,3/4-z
-x,-y,-z
3/4+y,1/4-x,3/4-z
x,1/2+y,-z
3/4-y,3/4+x,1/4-z
-x,y,z
x,1/2-y,z
3/4-y,1/4-x,3/4+z
3/4+y,3/4+x,1/4+z
1/2+x,1/2+y,1/2+z
3/4-y,1/4+x,3/4+z
1/2-x,-y,1/2+z
3/4+y,3/4-x,1/4+z
1/2+x,1/2-y,1/2-z
1/2-x,y,1/2-z
3/4+y,1/4+x,3/4-z
3/4-y,3/4-x,1/4-z
1/2-x,1/2-y,1/2-z
1/4+y,3/4-x,1/4-z
1/2+x,y,1/2-z
1/4-y,1/4+x,3/4-z
1/2-x,1/2+y,1/2+z
1/2+x,-y,1/2+z
1/4-y,3/4-x,1/4+z
1/4+y,1/4+x,3/4+z
loop_
_atom_site_type_symbol
_atom_site_label
_atom_site_fract_x
_atom_site_fract_y
_atom_site_fract_z
Si Si1 0.095559 0.608097 0.927064
Si Si2 0.798440 0.380054 0.406823
Si Si3 0.442840 0.303098 0.282725
Si Si4 0.305345 0.850651 0.587230
Si Si5 0.000000 0.052049 0.065310
Si Si6 0.738772 0.250000 0.419358
O O1 0.108485 0.578505 0.784847
O O2 0.074708 0.659883 0.895100
O O3 0.148742 0.623763 0.979369
O O4 0.048757 0.579121 0.979384
O O5 0.817530 0.432471 0.375000
O O6 0.743258 0.378699 0.443434
O O7 0.808802 0.351791 0.260214
O O8 0.500000 0.301208 0.281948
O O9 0.424332 0.250000 0.305278
O O10 0.429449 0.320552 0.125000
O O11 0.292248 0.796800 0.547449
O O12 0.000000 0.037424 0.235418
O O13 0.000000 0.000000 0.000000
O O14 0.750000 0.250000 0.250000
#
# Coordination Sequence:
#
# PCOD9572826 Si02
#       6
#    32  32  32  32  16  16
#     4  11  20  36  56  81 121 165 204 254 319 371
#     4   9  17  31  52  86 127 156 191 248 314 367
#     4   9  17  27  43  78 123 159 187 229 305 391
#     4  10  19  30  55  90 120 158 201 248 304 369
#     4  12  26  44  65  83 119 169 216 260 324 378
#     4  12  20  38  64  98 129 159 206 260 299 370
#
# _framework density 21.517111
#
# number of rings (size 3 to 8) (size 9 to 14) (size 15 to 20)
#    0.000    1.800    5.000    2.400    1.400    0.000 
#    0.000    1.000    8.800    0.000    0.000    0.000 
#    0.000    0.000    0.000    0.000    0.000    0.000 
#
# Total GULP energy -445751.577553 kJ/mol
# GULP energy per Si atom -5571.894719 kJ/mol
# Density = 2.146814 g / cm^3
# Si number density = 21.517111 Si / 1000 Ang^3
#
#
#
# Elastic Constant Matrix: (Units=GPa)
#
#
# Indices 1 2 3 4 5 6 
#
# 1 144.9743 90.5022 15.2116 0.0000 0.0000 0.0000
# 2 90.5022 144.9748 15.2126 0.0000 0.0000 0.0000
# 3 15.2116 15.2126 32.6351 0.0000 0.0000 0.0000
# 4 0.0000 0.0000 0.0000 -8.5442 0.0000 0.0000
# 5 0.0000 0.0000 0.0000 0.0000 -8.5340 0.0000
# 6 0.0000 0.0000 0.0000 0.0000 0.0000 39.5009
#
#
#
# Elastic Compliance Matrix: (Units=1/GPa)
#
#
# Indices 1 2 3 4 5 6 
#
# 1 0.011438 -0.006920 -0.002106 0.000000 0.000000 0.000000
# 2 -0.006920 0.011438 -0.002107 0.000000 0.000000 0.000000
# 3 -0.002106 -0.002107 0.032606 0.000000 0.000000 0.000000
# 4 0.000000 0.000000 0.000000 -0.117038 0.000000 0.000000
# 5 0.000000 0.000000 0.000000 0.000000 -0.117178 0.000000
# 6 0.000000 0.000000 0.000000 0.000000 0.000000 0.025316
#
#
# Mechanical properties :
#
#
# Convention : Reuss Voigt Hill
#
# Bulk Modulus (GPa) = 30.10436 62.71524 46.40980
# Shear Modulus (GPa) = -41.63846 17.92838 -11.85504
#
# Velocity S-wave (km/s) = -4.40379 2.88968 -2.34980
# Velocity P-wave (km/s) = 3.44042 6.35166 3.77539
#
# Compressibility (1/GPa) = 0.03321778
#
# Stress axis : x y z
#
# Youngs Moduli (GPa) = 87.42492 87.42468 30.66965
#
# Poissons Ratio (x) = 0.60494 0.06459
# Poissons Ratio (y) = 0.60494 0.06461
# Poissons Ratio (z) = 0.18412 0.18417
#
# Static dielectric constant tensor:
#      x y z
#    x 1.797880 0.000000 0.000000 
#    y 0.000000 1.797880 0.000000 
#    z 0.000000 0.000000 1.865000 
# 
# From -- ./inp_files/4911.got.cif
#   From: 2010.05.17/outbox.cif.g08.bks.cpg/sg141_3_cif.got.tgz:4911.got - 2010.05.20 13:30:51.
