data_PCOD9572695
_publ_section_title
;
Structure prediction by ZEFSAII (Michael W. Deem and Ramdas Pophale) SiO2 
 PCOD9572695
Probable space group: I 4/M C M
;
_chemical_formula_sum "Si O2"
_cell_formula_units_Z 136
_cell_length_a 19.099870
_cell_length_b 19.099870
_cell_length_c 19.242859
_cell_angle_alpha 90.000000
_cell_angle_beta 90.000000
_cell_angle_gamma 90.000000
_cell_volume 7019.891832
_symmetry_space_group_name_H-M "I 4/M C M"
_symmetry_group_IT_number 140
_symmetry_cell_setting 'tetragonal'
loop_
_space_group_symop_operation_xyz
x,y,z
-y,x,z
-x,-y,z
y,-x,z
x,-y,1/2-z
-x,y,1/2-z
y,x,1/2-z
-y,-x,1/2-z
-x,-y,-z
y,-x,-z
x,y,-z
-y,x,-z
-x,y,1/2+z
x,-y,1/2+z
-y,-x,1/2+z
y,x,1/2+z
1/2+x,1/2+y,1/2+z
1/2-y,1/2+x,1/2+z
1/2-x,1/2-y,1/2+z
1/2+y,1/2-x,1/2+z
1/2+x,1/2-y,-z
1/2-x,1/2+y,-z
1/2+y,1/2+x,-z
1/2-y,1/2-x,-z
1/2-x,1/2-y,1/2-z
1/2+y,1/2-x,1/2-z
1/2+x,1/2+y,1/2-z
1/2-y,1/2+x,1/2-z
1/2-x,1/2+y,z
1/2+x,1/2-y,z
1/2-y,1/2-x,z
1/2+y,1/2+x,z
loop_
_atom_site_type_symbol
_atom_site_label
_atom_site_fract_x
_atom_site_fract_y
_atom_site_fract_z
Si Si1 0.181169 0.500000 0.750000
Si Si2 0.124303 0.624303 0.655046
Si Si3 0.040643 0.891235 0.921852
Si Si4 0.245173 0.745173 0.667360
Si Si5 0.414492 0.085508 0.500000
Si Si6 0.057811 0.671785 0.000000
Si Si7 0.741330 0.408493 0.861797
O O1 0.143716 0.550627 0.693211
O O2 0.221662 0.558661 0.794864
O O3 0.185171 0.685171 0.657575
O O4 0.113969 0.613969 0.573066
O O5 0.060351 0.835569 0.865642
O O6 0.960731 0.913833 0.916213
O O7 0.052458 0.863158 0.000000
O O8 0.250000 0.750000 0.750000
O O9 0.324367 0.732165 0.639235
O O10 0.494470 0.115154 0.500000
O O11 0.062206 0.717417 0.070475
O O12 0.128748 0.628748 0.000000
#
# Coordination Sequence:
#
# PCOD9572695 Si02
#       7
#    16  16  32  16   8  16  32
#     4  12  26  45  70 101 142 186 228 288 354 427
#     4  12  28  50  72 108 139 186 238 288 359 416
#     4   9  20  38  62  97 134 173 225 286 350 410
#     4  12  26  46  68  99 143 184 227 284 352 423
#     4  12  27  46  76 100 140 178 242 295 330 432
#     4  12  25  45  66 106 136 177 229 289 351 398
#     4  12  24  42  70  97 138 182 228 286 344 422
#
# _framework density 19.373519000000002
#
# number of rings (size 3 to 8) (size 9 to 14) (size 15 to 20)
#    0.000    0.706    7.059    0.882    3.294    1.176 
#    2.118    0.000    0.000    1.412    0.000    0.000 
#    0.000    0.000    0.000    0.000    0.000    0.000 
#
# Total GULP energy -378756.772727 kJ/mol
# GULP energy per Si atom -5569.952540 kJ/mol
# Density = 1.932942 g / cm^3
# Si number density = 19.373519 Si / 1000 Ang^3
#
#
#
# Elastic Constant Matrix: (Units=GPa)
#
#
# Indices 1 2 3 4 5 6 
#
# 1 86.8200 32.2551 28.3006 0.0001 -0.0001 0.0000
# 2 32.2551 86.8197 28.3007 0.0001 -0.0004 0.0000
# 3 28.3006 28.3007 108.2223 0.0001 -0.0003 0.0000
# 4 0.0001 0.0001 0.0001********** -0.1801 0.0001
# 5 -0.0001 -0.0004 -0.0003 -0.1801********** -0.0002
# 6 0.0000 0.0000 0.0000 0.0001 -0.0002 26.0782
#
#
#
# Elastic Compliance Matrix: (Units=1/GPa)
#
#
# Indices 1 2 3 4 5 6 
#
# 1 0.013958 -0.004368 -0.002508 0.000000 0.000000 0.000000
# 2 -0.004368 0.013959 -0.002508 0.000000 0.000000 0.000000
# 3 -0.002508 -0.002508 0.010552 0.000000 0.000000 0.000000
# 4 0.000000 0.000000 0.000000 -0.000078 0.000000 0.000000
# 5 0.000000 0.000000 0.000000 0.000000 -0.000078 0.000000
# 6 0.000000 0.000000 0.000000 0.000000 0.000000 0.038346
#
#
# Mechanical properties :
#
#
# Convention : Reuss Voigt Hill
#
# Bulk Modulus (GPa) = 50.75953 51.06384 50.91168
# Shear Modulus (GPa) = 49.02250 -5103.42062 -2527.19906
#
# Velocity S-wave (km/s) = 5.03575 -51.38038 -36.15650
# Velocity P-wave (km/s) = 7.75043 59.10592 41.43333
#
# Compressibility (1/GPa) = 0.01970073
#
# Stress axis : x y z
#
# Youngs Moduli (GPa) = 71.64106 71.64072 94.76981
#
# Poissons Ratio (x) = 0.31295 0.23767
# Poissons Ratio (y) = 0.31295 0.23767
# Poissons Ratio (z) = 0.17967 0.17967
#
# Static dielectric constant tensor:
#      x y z
#    x 1.692410 0.000000 0.000000 
#    y 0.000000 1.692410 0.000000 
#    z 0.000000 0.000000 1.791040 
# 
# From -- ./inp_files/8169.got.cif
#   From: 2010.05.17/outbox.cif.g08.bks.cpg/sg140_5_cif.got.tgz:8169.got - 2010.06.21 00:45:31.
