data_PCOD9573372
_publ_section_title
;
Structure prediction by ZEFSAII (Michael W. Deem and Ramdas Pophale) SiO2 
 PCOD9573372
Probable space group: I 41/A M D
;
_chemical_formula_sum "Si O2"
_cell_formula_units_Z 80
_cell_length_a 14.155548
_cell_length_b 14.155548
_cell_length_c 16.285000
_cell_angle_alpha 90.000000
_cell_angle_beta 90.000000
_cell_angle_gamma 90.000000
_cell_volume 3263.180796
_symmetry_space_group_name_H-M "I 41/A M D"
_symmetry_group_IT_number 141
_space_group.IT_coordinate_system_code '2'
_symmetry_cell_setting 'tetragonal'
loop_
_space_group_symop_operation_xyz
x,y,z
1/4-y,3/4+x,1/4+z
-x,1/2-y,z
1/4+y,1/4-x,3/4+z
x,-y,-z
-x,1/2+y,-z
1/4+y,3/4+x,1/4-z
1/4-y,1/4-x,3/4-z
-x,-y,-z
3/4+y,1/4-x,3/4-z
x,1/2+y,-z
3/4-y,3/4+x,1/4-z
-x,y,z
x,1/2-y,z
3/4-y,1/4-x,3/4+z
3/4+y,3/4+x,1/4+z
1/2+x,1/2+y,1/2+z
3/4-y,1/4+x,3/4+z
1/2-x,-y,1/2+z
3/4+y,3/4-x,1/4+z
1/2+x,1/2-y,1/2-z
1/2-x,y,1/2-z
3/4+y,1/4+x,3/4-z
3/4-y,3/4-x,1/4-z
1/2-x,1/2-y,1/2-z
1/4+y,3/4-x,1/4-z
1/2+x,y,1/2-z
1/4-y,1/4+x,3/4-z
1/2-x,1/2+y,1/2+z
1/2+x,-y,1/2+z
1/4-y,3/4-x,1/4+z
1/4+y,1/4+x,3/4+z
loop_
_atom_site_type_symbol
_atom_site_label
_atom_site_fract_x
_atom_site_fract_y
_atom_site_fract_z
Si Si1 0.387423 0.362578 0.625000
Si Si2 0.107948 0.136283 0.536186
Si Si3 0.708412 0.635160 0.544345
O O1 0.371407 0.250000 0.630705
O O2 0.341912 0.396280 0.539852
O O3 0.109160 0.250000 0.544316
O O4 0.182245 0.109010 0.466610
O O5 0.142112 0.093359 0.622438
O O6 0.000000 0.108383 0.518302
O O7 0.702876 0.750000 0.544807
#
# Coordination Sequence:
#
# PCOD9573372 Si02
#       3
#    16  32  32
#     4   9  16  26  42  68 102 134 162 197 248 316
#     4   9  17  30  48  73 105 135 166 208 255 309
#     4   9  17  28  44  69 102 137 167 200 253 313
#
# _framework density 24.515958000000001
#
# number of rings (size 3 to 8) (size 9 to 14) (size 15 to 20)
#    0.000    3.000    0.000    1.200    0.000    6.400 
#    0.000    6.000    0.000    0.000    0.000   11.200 
#    0.000    0.000    0.000    0.000    0.000    0.000 
#
# Total GULP energy -223977.983922 kJ/mol
# GULP energy per Si atom -5599.449598 kJ/mol
# Density = 2.446016 g / cm^3
# Si number density = 24.515958 Si / 1000 Ang^3
#
#
#
# Elastic Constant Matrix: (Units=GPa)
#
#
# Indices 1 2 3 4 5 6 
#
# 1 81.9547 46.3026 56.1711 0.0000 0.0000 0.0000
# 2 46.3026 81.9523 56.1708 0.0000 0.0000 0.0000
# 3 56.1711 56.1708 123.3918 0.0000 0.0000 0.0000
# 4 0.0000 0.0000 0.0000 34.4357 0.0000 0.0000
# 5 0.0000 0.0000 0.0000 0.0000 34.4355 0.0000
# 6 0.0000 0.0000 0.0000 0.0000 0.0000 3.2540
#
#
#
# Elastic Compliance Matrix: (Units=1/GPa)
#
#
# Indices 1 2 3 4 5 6 
#
# 1 0.020508 -0.007541 -0.005903 0.000000 0.000000 0.000000
# 2 -0.007541 0.020509 -0.005903 0.000000 0.000000 0.000000
# 3 -0.005903 -0.005903 0.013479 0.000000 0.000000 0.000000
# 4 0.000000 0.000000 0.000000 0.029040 0.000000 0.000000
# 5 0.000000 0.000000 0.000000 0.000000 0.029040 0.000000
# 6 0.000000 0.000000 0.000000 0.000000 0.000000 0.307314
#
#
# Mechanical properties :
#
#
# Convention : Reuss Voigt Hill
#
# Bulk Modulus (GPa) = 63.28584 67.17642 65.23113
# Shear Modulus (GPa) = 10.77932 23.00200 16.89066
#
# Velocity S-wave (km/s) = 2.09914 3.06640 2.62766
# Velocity P-wave (km/s) = 5.63430 6.32437 5.98929
#
# Compressibility (1/GPa) = 0.01580132
#
# Stress axis : x y z
#
# Youngs Moduli (GPa) = 48.76082 48.75894 74.19069
#
# Poissons Ratio (x) = 0.36770 0.43795
# Poissons Ratio (y) = 0.36771 0.43797
# Poissons Ratio (z) = 0.28784 0.28784
#
# Static dielectric constant tensor:
#      x y z
#    x 1.957700 0.000000 0.000000 
#    y 0.000000 1.957700 0.000000 
#    z 0.000000 0.000000 1.867670 
# 
# From -- ./inp_files/5779.got.cif
#   From: 2010.05.17/outbox.cif.g08.bks.cpg/sg141_3_cif.got.tgz:5779.got - 2010.05.20 13:30:51.
