data_PCOD9573817
_publ_section_title
;
Structure prediction by ZEFSAII (Michael W. Deem and Ramdas Pophale) SiO2 
 PCOD9573817
Probable space group: I 41/A C D
;
_chemical_formula_sum "Si O2"
_cell_formula_units_Z 96
_cell_length_a 29.482510
_cell_length_b 29.482510
_cell_length_c 4.842027
_cell_angle_alpha 90.000000
_cell_angle_beta 90.000000
_cell_angle_gamma 90.000000
_cell_volume 4208.778942
_symmetry_space_group_name_H-M "I 41/A C D"
_symmetry_group_IT_number 142
_space_group.IT_coordinate_system_code '2'
_symmetry_cell_setting 'tetragonal'
loop_
_space_group_symop_operation_xyz
x,y,z
1/4-y,3/4+x,1/4+z
-x,1/2-y,z
1/4+y,1/4-x,3/4+z
x,-y,1/2-z
1/2-x,y,-z
3/4+y,1/4+x,1/4-z
1/4-y,1/4-x,1/4-z
-x,-y,-z
3/4+y,1/4-x,3/4-z
x,1/2+y,-z
3/4-y,3/4+x,1/4-z
-x,y,1/2+z
1/2+x,-y,z
1/4-y,3/4-x,3/4+z
3/4+y,3/4+x,3/4+z
1/2+x,1/2+y,1/2+z
3/4-y,1/4+x,3/4+z
1/2-x,-y,1/2+z
3/4+y,3/4-x,1/4+z
1/2+x,1/2-y,-z
-x,1/2+y,1/2-z
1/4+y,3/4+x,3/4-z
3/4-y,3/4-x,3/4-z
1/2-x,1/2-y,1/2-z
1/4+y,3/4-x,1/4-z
1/2+x,y,1/2-z
1/4-y,1/4+x,3/4-z
1/2-x,1/2+y,z
x,1/2-y,1/2+z
3/4-y,1/4-x,1/4+z
1/4+y,1/4+x,1/4+z
loop_
_atom_site_type_symbol
_atom_site_label
_atom_site_fract_x
_atom_site_fract_y
_atom_site_fract_z
Si Si1 0.154694 0.717774 0.107789
Si Si2 0.250000 0.215395 0.000000
Si Si3 0.619456 0.369456 0.875000
Si Si4 0.166571 0.083430 0.625000
Si Si5 0.250000 0.429537 0.500000
O O1 0.152521 0.762433 0.913954
O O2 0.202245 0.692012 0.035502
O O3 0.120533 0.679538 0.019221
O O4 0.250000 0.250000 0.250000
O O5 0.654615 0.381973 0.626443
O O6 0.158665 0.032486 0.493904
O O7 0.212378 0.462378 0.625000
#
# Coordination Sequence:
#
# PCOD9573817 Si02
#       5
#    32  16  16  16  16
#     4  10  21  42  67  90 132 175 214 277 352 418
#     4   8  16  33  56  81 110 160 204 236 309 390
#     4  12  26  41  66 107 128 162 238 295 344 401
#     4  12  26  41  62  96 136 175 234 277 312 397
#     4  12  22  45  64  85 138 198 224 254 331 400
#
# _framework density 22.809466
#
# number of rings (size 3 to 8) (size 9 to 14) (size 15 to 20)
#    0.000    1.333    3.333    2.000    0.000    1.333 
#    0.000    6.667    0.000    3.000    0.000    0.000 
#    0.000    0.000    0.000    0.000    0.000    0.000 
#
# Total GULP energy -267239.423309 kJ/mol
# GULP energy per Si atom -5567.487986 kJ/mol
# Density = 2.275755 g / cm^3
# Si number density = 22.809466 Si / 1000 Ang^3
#
#
#
# Elastic Constant Matrix: (Units=GPa)
#
#
# Indices 1 2 3 4 5 6 
#
# 1 54.3932 11.8109 1.5320 0.0000 0.0000 0.0000
# 2 11.8109 54.3926 1.5313 0.0000 0.0000 0.0000
# 3 1.5320 1.5313 132.9781 0.0000 0.0000 0.0000
# 4 0.0000 0.0000 0.0000 33.6810 0.0000 0.0000
# 5 0.0000 0.0000 0.0000 0.0000 33.6818 0.0000
# 6 0.0000 0.0000 0.0000 0.0000 0.0000 30.7665
#
#
#
# Elastic Compliance Matrix: (Units=1/GPa)
#
#
# Indices 1 2 3 4 5 6 
#
# 1 0.019298 -0.004186 -0.000174 0.000000 0.000000 0.000000
# 2 -0.004186 0.019299 -0.000174 0.000000 0.000000 0.000000
# 3 -0.000174 -0.000174 0.007524 0.000000 0.000000 0.000000
# 4 0.000000 0.000000 0.000000 0.029690 0.000000 0.000000
# 5 0.000000 0.000000 0.000000 0.000000 0.029690 0.000000
# 6 0.000000 0.000000 0.000000 0.000000 0.000000 0.032503
#
#
# Mechanical properties :
#
#
# Convention : Reuss Voigt Hill
#
# Bulk Modulus (GPa) = 26.98790 30.16801 28.57796
# Shear Modulus (GPa) = 31.36321 34.75186 33.05753
#
# Velocity S-wave (km/s) = 3.71213 3.90753 3.81108
# Velocity P-wave (km/s) = 5.49826 5.79769 5.64996
#
# Compressibility (1/GPa) = 0.03705364
#
# Stress axis : x y z
#
# Youngs Moduli (GPa) = 51.81778 51.81721 132.90723
#
# Poissons Ratio (x) = 0.21688 0.02314
# Poissons Ratio (y) = 0.21689 0.02313
# Poissons Ratio (z) = 0.00902 0.00902
#
# Static dielectric constant tensor:
#      x y z
#    x 1.916900 0.000000 0.000000 
#    y 0.000000 1.916900 0.000000 
#    z 0.000000 0.000000 1.957890 
# 
# From -- ./inp_files/708.got.cif
#   From: 2010.05.17/outbox.cif.g08.bks.cpg/sg142_1_cif.got.tgz:708.got - 2010.05.20 13:39:18.
