data_PCOD9573310
_publ_section_title
;
Structure prediction by ZEFSAII (Michael W. Deem and Ramdas Pophale) SiO2 
 PCOD9573310
Probable space group: I 41/A M D
;
_chemical_formula_sum "Si O2"
_cell_formula_units_Z 160
_cell_length_a 21.114925
_cell_length_b 21.114925
_cell_length_c 18.679624
_cell_angle_alpha 90.000000
_cell_angle_beta 90.000000
_cell_angle_gamma 90.000000
_cell_volume 8328.124643
_symmetry_space_group_name_H-M "I 41/A M D"
_symmetry_group_IT_number 141
_space_group.IT_coordinate_system_code '2'
_symmetry_cell_setting 'tetragonal'
loop_
_space_group_symop_operation_xyz
x,y,z
1/4-y,3/4+x,1/4+z
-x,1/2-y,z
1/4+y,1/4-x,3/4+z
x,-y,-z
-x,1/2+y,-z
1/4+y,3/4+x,1/4-z
1/4-y,1/4-x,3/4-z
-x,-y,-z
3/4+y,1/4-x,3/4-z
x,1/2+y,-z
3/4-y,3/4+x,1/4-z
-x,y,z
x,1/2-y,z
3/4-y,1/4-x,3/4+z
3/4+y,3/4+x,1/4+z
1/2+x,1/2+y,1/2+z
3/4-y,1/4+x,3/4+z
1/2-x,-y,1/2+z
3/4+y,3/4-x,1/4+z
1/2+x,1/2-y,1/2-z
1/2-x,y,1/2-z
3/4+y,1/4+x,3/4-z
3/4-y,3/4-x,1/4-z
1/2-x,1/2-y,1/2-z
1/4+y,3/4-x,1/4-z
1/2+x,y,1/2-z
1/4-y,1/4+x,3/4-z
1/2-x,1/2+y,1/2+z
1/2+x,-y,1/2+z
1/4-y,3/4-x,1/4+z
1/4+y,1/4+x,3/4+z
loop_
_atom_site_type_symbol
_atom_site_label
_atom_site_fract_x
_atom_site_fract_y
_atom_site_fract_z
Si Si1 0.674143 0.176351 0.593118
Si Si2 0.739474 0.084259 0.834679
Si Si3 0.361822 0.675204 0.944108
Si Si4 0.211667 0.848548 0.930520
Si Si5 0.318731 0.679648 0.723229
O O1 0.664238 0.250000 0.609219
O O2 0.617830 0.132170 0.625000
O O3 0.739240 0.149870 0.628538
O O4 0.681842 0.167600 0.507563
O O5 0.750000 0.089171 0.750000
O O6 0.669934 0.056618 0.839781
O O7 0.784731 0.034731 0.875000
O O8 0.372309 0.750000 0.956654
O O9 0.400405 0.650405 0.875000
O O10 0.286880 0.663438 0.934143
O O11 0.386505 0.627558 0.005089
O O12 0.185164 0.813567 0.861530
O O13 0.325743 0.750000 0.756640
O O14 0.250000 0.654339 0.750000
#
# Coordination Sequence:
#
# PCOD9573310 Si02
#       5
#    32  32  32  32  32
#     4  11  24  45  69  97 134 175 226 282 340 411
#     4  11  22  40  66 102 130 164 210 271 340 394
#     4  12  25  42  68  98 134 182 227 278 339 408
#     4  12  23  42  68  98 131 173 223 275 337 403
#     4  11  24  41  62  93 132 176 222 270 327 394
#
# _framework density 19.212008999999998
#
# number of rings (size 3 to 8) (size 9 to 14) (size 15 to 20)
#    0.000    0.600    6.000    4.200    0.000    2.000 
#    0.000    1.000    0.000    2.400    0.000    0.000 
#    0.000    0.000    0.000    0.000    0.000    0.000 
#
# Total GULP energy -446522.059428 kJ/mol
# GULP energy per Si atom -5581.525743 kJ/mol
# Density = 1.916828 g / cm^3
# Si number density = 19.212009 Si / 1000 Ang^3
#
#
#
# Elastic Constant Matrix: (Units=GPa)
#
#
# Indices 1 2 3 4 5 6 
#
# 1 149.8808 63.5682 45.6326 0.0000 0.0000 0.0000
# 2 63.5682 149.8808 45.6326 0.0000 0.0000 0.0000
# 3 45.6326 45.6326 146.1516 0.0000 0.0000 0.0000
# 4 0.0000 0.0000 0.0000 19.8996 0.0000 0.0000
# 5 0.0000 0.0000 0.0000 0.0000 19.8996 0.0000
# 6 0.0000 0.0000 0.0000 0.0000 0.0000 100.4309
#
#
#
# Elastic Compliance Matrix: (Units=1/GPa)
#
#
# Indices 1 2 3 4 5 6 
#
# 1 0.008496 -0.003090 -0.001688 0.000000 0.000000 0.000000
# 2 -0.003090 0.008496 -0.001688 0.000000 0.000000 0.000000
# 3 -0.001688 -0.001688 0.007896 0.000000 0.000000 0.000000
# 4 0.000000 0.000000 0.000000 0.050252 0.000000 0.000000
# 5 0.000000 0.000000 0.000000 0.000000 0.050252 0.000000
# 6 0.000000 0.000000 0.000000 0.000000 0.000000 0.009957
#
#
# Mechanical properties :
#
#
# Convention : Reuss Voigt Hill
#
# Bulk Modulus (GPa) = 83.63066 83.95336 83.79201
# Shear Modulus (GPa) = 32.83687 47.45134 40.14411
#
# Velocity S-wave (km/s) = 4.13871 4.97518 4.57610
# Velocity P-wave (km/s) = 8.15252 8.76336 8.46345
#
# Compressibility (1/GPa) = 0.01195734
#
# Stress axis : x y z
#
# Youngs Moduli (GPa) = 117.69854 117.69854 126.64032
#
# Poissons Ratio (x) = 0.36363 0.21379
# Poissons Ratio (y) = 0.36363 0.21379
# Poissons Ratio (z) = 0.19869 0.19869
#
# Static dielectric constant tensor:
#      x y z
#    x 1.759710 0.000000 0.000000 
#    y 0.000000 1.759710 0.000000 
#    z 0.000000 0.000000 1.698090 
# 
# From -- ./inp_files/8564.got.cif
#   From: 2010.05.17/outbox.cif.g08.bks.cpg/sg141_5_cif.got.tgz:8564.got - 2010.05.20 13:30:51.
