data_PCOD9573378
_publ_section_title
;
Structure prediction by ZEFSAII (Michael W. Deem and Ramdas Pophale) SiO2 
 PCOD9573378
Probable space group: I 41/A M D
;
_chemical_formula_sum "Si O2"
_cell_formula_units_Z 88
_cell_length_a 18.000000
_cell_length_b 18.000000
_cell_length_c 27.000000
_cell_angle_alpha 90.000000
_cell_angle_beta 90.000000
_cell_angle_gamma 90.000000
_cell_volume 8748.000000
_symmetry_space_group_name_H-M "I 41/A M D"
_symmetry_group_IT_number 141
_space_group.IT_coordinate_system_code '2'
_symmetry_cell_setting 'tetragonal'
loop_
_space_group_symop_operation_xyz
x,y,z
1/4-y,3/4+x,1/4+z
-x,1/2-y,z
1/4+y,1/4-x,3/4+z
x,-y,-z
-x,1/2+y,-z
1/4+y,3/4+x,1/4-z
1/4-y,1/4-x,3/4-z
-x,-y,-z
3/4+y,1/4-x,3/4-z
x,1/2+y,-z
3/4-y,3/4+x,1/4-z
-x,y,z
x,1/2-y,z
3/4-y,1/4-x,3/4+z
3/4+y,3/4+x,1/4+z
1/2+x,1/2+y,1/2+z
3/4-y,1/4+x,3/4+z
1/2-x,-y,1/2+z
3/4+y,3/4-x,1/4+z
1/2+x,1/2-y,1/2-z
1/2-x,y,1/2-z
3/4+y,1/4+x,3/4-z
3/4-y,3/4-x,1/4-z
1/2-x,1/2-y,1/2-z
1/4+y,3/4-x,1/4-z
1/2+x,y,1/2-z
1/4-y,1/4+x,3/4-z
1/2-x,1/2+y,1/2+z
1/2+x,-y,1/2+z
1/4-y,3/4-x,1/4+z
1/4+y,1/4+x,3/4+z
loop_
_atom_site_type_symbol
_atom_site_label
_atom_site_fract_x
_atom_site_fract_y
_atom_site_fract_z
Si Si1 0.411543 0.438817 0.897311
Si Si2 0.161869 0.928486 0.759159
Si Si3 0.417395 0.891492 0.920832
Si Si4 0.668658 0.836500 0.473069
Si Si5 0.416315 0.833686 0.375000
Si Si6 0.580220 0.160116 0.435855
O O1 0.500000 0.429690 0.902828
O O2 0.369743 0.399386 0.942044
O O3 0.397681 0.526746 0.899469
O O4 0.385940 0.398946 0.847567
O O5 0.250000 0.924396 0.750000
O O6 0.121970 0.890231 0.713087
O O7 0.135913 0.011298 0.765721
O O8 0.412961 0.837040 0.875000
O O9 0.500000 0.896577 0.942268
O O10 0.686648 0.750000 0.483768
O O11 0.643509 0.842596 0.417141
O O12 0.600112 0.857664 0.508051
O O13 0.500000 0.839293 0.395903
O O14 0.500000 0.130773 0.420256
O O15 0.577167 0.250000 0.432056
#
# Coordination Sequence:
#
# PCOD9573378 Si02
#       6
#    32  32  32  32  16  32
#     4   9  18  34  55  78 106 143 188 231 270 322
#     4  10  21  37  55  79 108 149 185 225 274 331
#     4  10  20  35  55  80 110 145 186 229 275 324
#     4  10  20  36  57  82 111 143 183 226 271 329
#     4   9  18  36  62  86 110 144 184 228 277 328
#     4   9  17  31  54  81 106 136 176 221 269 321
#
# _framework density 10.059442000000001
#
# number of rings (size 3 to 8) (size 9 to 14) (size 15 to 20)
#    0.000    2.455    0.000    2.182    0.000    7.455 
#    9.818    0.000    0.000    4.364    0.000    0.000 
#    0.000    0.000    0.000    0.000    0.000    0.000 
#
# Total GULP energy -490308.809173 kJ/mol
# GULP energy per Si atom -5571.691013 kJ/mol
# Density = 1.003655 g / cm^3
# Si number density = 10.059442 Si / 1000 Ang^3
#
#
#
# Elastic Constant Matrix: (Units=GPa)
#
#
# Indices 1 2 3 4 5 6 
#
# 1 11.4091 15.6901 15.9568 0.0000 0.0000 0.0000
# 2 15.6901 11.4096 15.9579 0.0000 0.0000 0.0000
# 3 15.9568 15.9579 52.0887 0.0000 0.0000 0.0000
# 4 0.0000 0.0000 0.0000 15.5236 0.0000 0.0000
# 5 0.0000 0.0000 0.0000 0.0000 15.5238 0.0000
# 6 0.0000 0.0000 0.0000 0.0000 0.0000 21.7910
#
#
#
# Elastic Compliance Matrix: (Units=1/GPa)
#
#
# Indices 1 2 3 4 5 6 
#
# 1 -0.087937 0.145667 -0.017688 0.000000 0.000000 0.000000
# 2 0.145667 -0.087939 -0.017682 0.000000 0.000000 0.000000
# 3 -0.017688 -0.017682 0.030034 0.000000 0.000000 0.000000
# 4 0.000000 0.000000 0.000000 0.064418 0.000000 0.000000
# 5 0.000000 0.000000 0.000000 0.000000 0.064417 0.000000
# 6 0.000000 0.000000 0.000000 0.000000 0.000000 0.045891
#
#
# Mechanical properties :
#
#
# Convention : Reuss Voigt Hill
#
# Bulk Modulus (GPa) = 13.37783 18.90190 16.13987
# Shear Modulus (GPa) = -29.97748 12.38784 -8.79482
#
# Velocity S-wave (km/s) = -3.86426 2.48409 -2.09306
# Velocity P-wave (km/s) = 3.63953 4.20037 1.48272
#
# Compressibility (1/GPa) = 0.07475051
#
# Stress axis : x y z
#
# Youngs Moduli (GPa) = -11.37178 -11.37153 33.29586
#
# Poissons Ratio (x) = 1.65645 0.58894
# Poissons Ratio (y) = 1.65649 0.58875
# Poissons Ratio (z) = -0.20114 -0.20108
#
# Static dielectric constant tensor:
#      x y z
#    x 1.694000 0.000000 0.000000 
#    y 0.000000 1.694000 0.000000 
#    z 0.000000 0.000000 1.750860 
# 
# From -- ./inp_files/12908.got.cif
#   From: 2010.05.17/outbox.ucp.g08.bks.cvg/sg141_7_cif.got.tgz:12908.got - 2010.06.11 11:43:24.
