data_PCOD9573972
_publ_section_title
;
Structure prediction by ZEFSAII (Michael W. Deem and Ramdas Pophale) SiO2 
 PCOD9573972
Probable space group: I 41/A C D
;
_chemical_formula_sum "Si O2"
_cell_formula_units_Z 136
_cell_length_a 16.322453
_cell_length_b 16.322453
_cell_length_c 25.521287
_cell_angle_alpha 90.000000
_cell_angle_beta 90.000000
_cell_angle_gamma 90.000000
_cell_volume 6799.444370
_symmetry_space_group_name_H-M "I 41/A C D"
_symmetry_group_IT_number 142
_space_group.IT_coordinate_system_code '2'
_symmetry_cell_setting 'tetragonal'
loop_
_space_group_symop_operation_xyz
x,y,z
1/4-y,3/4+x,1/4+z
-x,1/2-y,z
1/4+y,1/4-x,3/4+z
x,-y,1/2-z
1/2-x,y,-z
3/4+y,1/4+x,1/4-z
1/4-y,1/4-x,1/4-z
-x,-y,-z
3/4+y,1/4-x,3/4-z
x,1/2+y,-z
3/4-y,3/4+x,1/4-z
-x,y,1/2+z
1/2+x,-y,z
1/4-y,3/4-x,3/4+z
3/4+y,3/4+x,3/4+z
1/2+x,1/2+y,1/2+z
3/4-y,1/4+x,3/4+z
1/2-x,-y,1/2+z
3/4+y,3/4-x,1/4+z
1/2+x,1/2-y,-z
-x,1/2+y,1/2-z
1/4+y,3/4+x,3/4-z
3/4-y,3/4-x,3/4-z
1/2-x,1/2-y,1/2-z
1/4+y,3/4-x,1/4-z
1/2+x,y,1/2-z
1/4-y,1/4+x,3/4-z
1/2-x,1/2+y,z
x,1/2-y,1/2+z
3/4-y,1/4-x,1/4+z
1/4+y,1/4+x,1/4+z
loop_
_atom_site_type_symbol
_atom_site_label
_atom_site_fract_x
_atom_site_fract_y
_atom_site_fract_z
Si Si1 0.378587 0.988828 0.530890
Si Si2 0.384723 0.865278 0.625000
Si Si3 0.500000 0.750000 0.375000
Si Si4 0.367824 0.500000 0.750000
Si Si5 0.314571 0.810929 0.100410
Si Si6 0.041623 0.420435 0.429922
O O1 0.364420 0.921749 0.575407
O O2 0.392039 0.942521 0.475136
O O3 0.307791 0.055487 0.530740
O O4 0.458720 0.042403 0.545070
O O5 0.478464 0.885066 0.638642
O O6 0.530374 0.673146 0.410924
O O7 0.422616 0.448395 0.789517
O O8 0.364520 0.885481 0.125000
O O9 0.227043 0.806789 0.129219
#
# Coordination Sequence:
#
# PCOD9573972 Si02
#       6
#    32  16   8  16  32  32
#     4  10  23  42  63  95 133 175 219 290 343 409
#     4  10  25  42  68  96 138 175 230 286 348 422
#     4  12  24  40  72  98 132 184 232 292 336 450
#     4  12  24  38  74  96 132 186 228 282 350 430
#     4  11  23  45  67  99 135 183 230 285 353 414
#     4  10  23  44  61  94 135 172 224 282 349 402
#
# _framework density 20.001636000000001
#
# number of rings (size 3 to 8) (size 9 to 14) (size 15 to 20)
#    0.000    1.412    2.353    1.765    1.647    8.471 
#    0.000    0.000    0.000    0.000    0.000    0.000 
#    0.000    0.000    0.000    0.000    0.000    0.000 
#
# Total GULP energy -379792.956138 kJ/mol
# GULP energy per Si atom -5585.190531 kJ/mol
# Density = 1.995611 g / cm^3
# Si number density = 20.001636 Si / 1000 Ang^3
#
#
#
# Elastic Constant Matrix: (Units=GPa)
#
#
# Indices 1 2 3 4 5 6 
#
# 1 60.0432 52.6888 24.7069 0.0000 0.0000 0.0000
# 2 52.6888 60.0317 24.6894 0.0000 0.0000 0.0000
# 3 24.7069 24.6894 48.6223 0.0000 0.0000 0.0000
# 4 0.0000 0.0000 0.0000 -45.8972 0.0000 0.0000
# 5 0.0000 0.0000 0.0000 0.0000 -45.8041 0.0000
# 6 0.0000 0.0000 0.0000 0.0000 0.0000 9.6956
#
#
#
# Elastic Compliance Matrix: (Units=1/GPa)
#
#
# Indices 1 2 3 4 5 6 
#
# 1 0.073749 -0.062334 -0.005823 0.000000 0.000000 0.000000
# 2 -0.062334 0.073740 -0.005769 0.000000 0.000000 0.000000
# 3 -0.005823 -0.005769 0.026455 0.000000 0.000000 0.000000
# 4 0.000000 0.000000 0.000000 -0.021788 0.000000 0.000000
# 5 0.000000 0.000000 0.000000 0.000000 -0.021832 0.000000
# 6 0.000000 0.000000 0.000000 0.000000 0.000000 0.103140
#
#
# Mechanical properties :
#
#
# Convention : Reuss Voigt Hill
#
# Bulk Modulus (GPa) = 38.32596 41.42972 39.87784
# Shear Modulus (GPa) = 12.82006 -11.96033 0.42986
#
# Velocity S-wave (km/s) = 2.53445 -2.44799 0.46409
# Velocity P-wave (km/s) = 5.26949 3.57322 4.50197
#
# Compressibility (1/GPa) = 0.02609197
#
# Stress axis : x y z
#
# Youngs Moduli (GPa) = 13.55943 13.56124 37.79965
#
# Poissons Ratio (x) = 0.84532 0.22012
# Poissons Ratio (y) = 0.84521 0.21808
# Poissons Ratio (z) = 0.07896 0.07824
#
# Static dielectric constant tensor:
#      x y z
#    x 1.697990 0.000000 0.000000 
#    y 0.000000 1.698000 0.000000 
#    z 0.000000 0.000000 1.730480 
# 
# From -- ./inp_files/8838.got.cif
#   From: 2010.05.17/outbox.cif.g08.bks.cpg/sg142_5_cif.got.tgz:8838.got - 2010.05.20 13:39:18.
