data_PCOD9573858
_publ_section_title
;
Structure prediction by ZEFSAII (Michael W. Deem and Ramdas Pophale) SiO2 
 PCOD9573858
Probable space group: I 41/A C D
;
_chemical_formula_sum "Si O2"
_cell_formula_units_Z 216
_cell_length_a 26.190577
_cell_length_b 26.190577
_cell_length_c 15.950267
_cell_angle_alpha 90.000000
_cell_angle_beta 90.000000
_cell_angle_gamma 90.000000
_cell_volume 10941.027009
_symmetry_space_group_name_H-M "I 41/A C D"
_symmetry_group_IT_number 142
_space_group.IT_coordinate_system_code '2'
_symmetry_cell_setting 'tetragonal'
loop_
_space_group_symop_operation_xyz
x,y,z
1/4-y,3/4+x,1/4+z
-x,1/2-y,z
1/4+y,1/4-x,3/4+z
x,-y,1/2-z
1/2-x,y,-z
3/4+y,1/4+x,1/4-z
1/4-y,1/4-x,1/4-z
-x,-y,-z
3/4+y,1/4-x,3/4-z
x,1/2+y,-z
3/4-y,3/4+x,1/4-z
-x,y,1/2+z
1/2+x,-y,z
1/4-y,3/4-x,3/4+z
3/4+y,3/4+x,3/4+z
1/2+x,1/2+y,1/2+z
3/4-y,1/4+x,3/4+z
1/2-x,-y,1/2+z
3/4+y,3/4-x,1/4+z
1/2+x,1/2-y,-z
-x,1/2+y,1/2-z
1/4+y,3/4+x,3/4-z
3/4-y,3/4-x,3/4-z
1/2-x,1/2-y,1/2-z
1/4+y,3/4-x,1/4-z
1/2+x,y,1/2-z
1/4-y,1/4+x,3/4-z
1/2-x,1/2+y,z
x,1/2-y,1/2+z
3/4-y,1/4-x,1/4+z
1/4+y,1/4+x,1/4+z
loop_
_atom_site_type_symbol
_atom_site_label
_atom_site_fract_x
_atom_site_fract_y
_atom_site_fract_z
Si Si1 0.302034 0.516493 0.045416
Si Si2 0.463872 0.851305 0.561010
Si Si3 0.156212 0.047680 0.881208
Si Si4 0.909158 0.625863 0.177055
Si Si5 0.066577 0.689767 0.516523
Si Si6 0.500000 0.750000 0.375000
Si Si7 0.750000 0.824937 0.500000
Si Si8 0.839099 0.750207 0.954151
O O1 0.305025 0.555025 0.125000
O O2 0.293131 0.459593 0.080978
O O3 0.250000 0.532748 0.000000
O O4 0.342451 0.517240 0.969847
O O5 0.437902 0.812099 0.625000
O O6 0.425313 0.855136 0.483715
O O7 0.517784 0.828525 0.534021
O O8 0.473024 0.902386 0.614520
O O9 0.153419 0.106373 0.911454
O O10 0.111281 0.027967 0.819278
O O11 0.923126 0.646539 0.085097
O O12 0.955046 0.595978 0.225103
O O13 0.048301 0.739580 0.568169
O O14 0.114645 0.709629 0.466303
O O15 0.709670 0.785604 0.539927
#
# Coordination Sequence:
#
# PCOD9573858 Si02
#       8
#    32  32  32  32  32   8  16  32
#     4   9  20  42  70  99 122 152 218 288 333 383
#     4  10  22  39  60  95 127 165 218 272 311 387
#     4  11  23  43  70  97 130 171 222 280 341 403
#     4  11  22  40  64  87 129 177 217 258 329 399
#     4  12  19  35  61  87 119 163 213 259 321 376
#     4  12  16  28  62  88 112 156 202 264 288 376
#     4  12  26  44  64  98 142 176 214 280 348 402
#     4  11  24  42  59  90 134 172 215 271 328 401
#
# _framework density 19.742204000000001
#
# number of rings (size 3 to 8) (size 9 to 14) (size 15 to 20)
#    0.000    1.185    5.185    1.333    0.000    4.741 
#    9.333    0.741    0.000    0.000    0.000    0.000 
#    0.000    0.000    0.000    0.000    0.000    0.000 
#
# Total GULP energy -602170.643772 kJ/mol
# GULP energy per Si atom -5575.654109 kJ/mol
# Density = 1.969727 g / cm^3
# Si number density = 19.742204 Si / 1000 Ang^3
#
#
#
# Elastic Constant Matrix: (Units=GPa)
#
#
# Indices 1 2 3 4 5 6 
#
# 1 42.8043 12.1204 23.9258 0.0000 0.0000 0.0000
# 2 12.1204 42.8061 23.9271 0.0000 0.0000 0.0000
# 3 23.9258 23.9271 89.9484 0.0000 0.0000 0.0000
# 4 0.0000 0.0000 0.0000 5.6098 0.0000 0.0000
# 5 0.0000 0.0000 0.0000 0.0000 5.6141 0.0000
# 6 0.0000 0.0000 0.0000 0.0000 0.0000 28.3733
#
#
#
# Elastic Compliance Matrix: (Units=1/GPa)
#
#
# Indices 1 2 3 4 5 6 
#
# 1 0.028144 -0.004445 -0.006304 0.000000 0.000000 0.000000
# 2 -0.004445 0.028144 -0.006304 0.000000 0.000000 0.000000
# 3 -0.006304 -0.006304 0.014471 0.000000 0.000000 0.000000
# 4 0.000000 0.000000 0.000000 0.178261 0.000000 0.000000
# 5 0.000000 0.000000 0.000000 0.000000 0.178123 0.000000
# 6 0.000000 0.000000 0.000000 0.000000 0.000000 0.035244
#
#
# Mechanical properties :
#
#
# Convention : Reuss Voigt Hill
#
# Bulk Modulus (GPa) = 27.28302 32.83393 30.05848
# Shear Modulus (GPa) = 9.82876 15.62512 12.72694
#
# Velocity S-wave (km/s) = 2.23369 2.81634 2.54176
# Velocity P-wave (km/s) = 4.52793 5.21949 4.88596
#
# Compressibility (1/GPa) = 0.03665283
#
# Stress axis : x y z
#
# Youngs Moduli (GPa) = 35.53098 35.53208 69.10297
#
# Poissons Ratio (x) = 0.15796 0.43561
# Poissons Ratio (y) = 0.15795 0.43562
# Poissons Ratio (z) = 0.22398 0.22399
#
# Static dielectric constant tensor:
#      x y z
#    x 1.705950 0.000000 0.000000 
#    y 0.000000 1.705940 0.000000 
#    z 0.000000 0.000000 1.767210 
# 
# From -- ./inp_files/5816.got.cif
#   From: 2010.05.17/outbox.cif.g08.bks.cpg/sg142_3_cif.got.tgz:5816.got - 2010.05.20 13:39:18.
