data_PCOD9573934
_publ_section_title
;
Structure prediction by ZEFSAII (Michael W. Deem and Ramdas Pophale) SiO2 
 PCOD9573934
Probable space group: I 41/A C D
;
_chemical_formula_sum "Si O2"
_cell_formula_units_Z 96
_cell_length_a 16.930472
_cell_length_b 16.930472
_cell_length_c 13.972783
_cell_angle_alpha 90.000000
_cell_angle_beta 90.000000
_cell_angle_gamma 90.000000
_cell_volume 4005.170845
_symmetry_space_group_name_H-M "I 41/A C D"
_symmetry_group_IT_number 142
_space_group.IT_coordinate_system_code '2'
_symmetry_cell_setting 'tetragonal'
loop_
_space_group_symop_operation_xyz
x,y,z
1/4-y,3/4+x,1/4+z
-x,1/2-y,z
1/4+y,1/4-x,3/4+z
x,-y,1/2-z
1/2-x,y,-z
3/4+y,1/4+x,1/4-z
1/4-y,1/4-x,1/4-z
-x,-y,-z
3/4+y,1/4-x,3/4-z
x,1/2+y,-z
3/4-y,3/4+x,1/4-z
-x,y,1/2+z
1/2+x,-y,z
1/4-y,3/4-x,3/4+z
3/4+y,3/4+x,3/4+z
1/2+x,1/2+y,1/2+z
3/4-y,1/4+x,3/4+z
1/2-x,-y,1/2+z
3/4+y,3/4-x,1/4+z
1/2+x,1/2-y,-z
-x,1/2+y,1/2-z
1/4+y,3/4+x,3/4-z
3/4-y,3/4-x,3/4-z
1/2-x,1/2-y,1/2-z
1/4+y,3/4-x,1/4-z
1/2+x,y,1/2-z
1/4-y,1/4+x,3/4-z
1/2-x,1/2+y,z
x,1/2-y,1/2+z
3/4-y,1/4-x,1/4+z
1/4+y,1/4+x,1/4+z
loop_
_atom_site_type_symbol
_atom_site_label
_atom_site_fract_x
_atom_site_fract_y
_atom_site_fract_z
Si Si1 0.125893 0.023962 0.549731
Si Si2 0.017055 0.574120 0.604619
Si Si3 0.395069 0.636159 0.236964
O O1 0.180339 0.069662 0.625000
O O2 0.100032 0.068068 0.452342
O O3 0.155452 0.938628 0.513121
O O4 0.039292 0.002434 0.593988
O O5 0.034050 0.590703 0.713991
O O6 0.967285 0.639162 0.547155
O O7 0.399464 0.649464 0.125000
#
# Coordination Sequence:
#
# PCOD9573934 Si02
#       3
#    32  32  32
#     4   9  21  46  72 105 141 206 245 308 376 449
#     4   9  22  44  70 108 143 201 245 304 376 451
#     4  10  22  44  72 105 150 194 252 315 368 459
#
# _framework density 23.969017000000001
#
# number of rings (size 3 to 8) (size 9 to 14) (size 15 to 20)
#    2.000    0.667    0.000    0.000    0.000    6.000 
#   12.000    6.667    0.000    0.000    0.000    0.000 
#    0.000    0.000    0.000    0.000    0.000    0.000 
#
# Total GULP energy -267584.659605 kJ/mol
# GULP energy per Si atom -5574.680408 kJ/mol
# Density = 2.391446 g / cm^3
# Si number density = 23.969017 Si / 1000 Ang^3
#
#
#
# Elastic Constant Matrix: (Units=GPa)
#
#
# Indices 1 2 3 4 5 6 
#
# 1 47.2240 19.8124 53.3436 0.0000 0.0000 0.0000
# 2 19.8124 47.2267 53.3441 0.0000 0.0000 0.0000
# 3 53.3436 53.3441 226.0368 0.0000 0.0000 0.0000
# 4 0.0000 0.0000 0.0000 12.2975 0.0000 0.0000
# 5 0.0000 0.0000 0.0000 0.0000 12.2972 0.0000
# 6 0.0000 0.0000 0.0000 0.0000 0.0000 30.3517
#
#
#
# Elastic Compliance Matrix: (Units=1/GPa)
#
#
# Indices 1 2 3 4 5 6 
#
# 1 0.030185 -0.006295 -0.005638 0.000000 0.000000 0.000000
# 2 -0.006295 0.030183 -0.005638 0.000000 0.000000 0.000000
# 3 -0.005638 -0.005638 0.007085 0.000000 0.000000 0.000000
# 4 0.000000 0.000000 0.000000 0.081317 0.000000 0.000000
# 5 0.000000 0.000000 0.000000 0.000000 0.081319 0.000000
# 6 0.000000 0.000000 0.000000 0.000000 0.000000 0.032947
#
#
# Mechanical properties :
#
#
# Convention : Reuss Voigt Hill
#
# Bulk Modulus (GPa) = 30.94782 63.72083 47.33432
# Shear Modulus (GPa) = 16.18393 23.92179 20.05286
#
# Velocity S-wave (km/s) = 2.60128 3.16259 2.89557
# Velocity P-wave (km/s) = 4.68635 6.32284 5.56508
#
# Compressibility (1/GPa) = 0.03231246
#
# Stress axis : x y z
#
# Youngs Moduli (GPa) = 33.12880 33.13115 141.14242
#
# Poissons Ratio (x) = 0.20856 0.79576
# Poissons Ratio (y) = 0.20854 0.79570
# Poissons Ratio (z) = 0.18678 0.18678
#
# Static dielectric constant tensor:
#      x y z
#    x 1.995170 0.000000 0.000000 
#    y 0.000000 1.995170 0.000000 
#    z 0.000000 0.000000 1.888480 
# 
# From -- ./inp_files/3157.got.cif
#   From: 2010.05.17/outbox.cif.g08.bks.cpg/sg142_2_cif.got.tgz:3157.got - 2010.05.20 13:39:18.
