data_PCOD9573425
_publ_section_title
;
Structure prediction by ZEFSAII (Michael W. Deem and Ramdas Pophale) SiO2 
 PCOD9573425
Probable space group: I 41/A C D
;
_chemical_formula_sum "Si O2"
_cell_formula_units_Z 128
_cell_length_a 18.587379
_cell_length_b 18.587379
_cell_length_c 16.002364
_cell_angle_alpha 90.000000
_cell_angle_beta 90.000000
_cell_angle_gamma 90.000000
_cell_volume 5528.667269
_symmetry_space_group_name_H-M "I 41/A C D"
_symmetry_group_IT_number 142
_space_group.IT_coordinate_system_code '2'
_symmetry_cell_setting 'tetragonal'
loop_
_space_group_symop_operation_xyz
x,y,z
1/4-y,3/4+x,1/4+z
-x,1/2-y,z
1/4+y,1/4-x,3/4+z
x,-y,1/2-z
1/2-x,y,-z
3/4+y,1/4+x,1/4-z
1/4-y,1/4-x,1/4-z
-x,-y,-z
3/4+y,1/4-x,3/4-z
x,1/2+y,-z
3/4-y,3/4+x,1/4-z
-x,y,1/2+z
1/2+x,-y,z
1/4-y,3/4-x,3/4+z
3/4+y,3/4+x,3/4+z
1/2+x,1/2+y,1/2+z
3/4-y,1/4+x,3/4+z
1/2-x,-y,1/2+z
3/4+y,3/4-x,1/4+z
1/2+x,1/2-y,-z
-x,1/2+y,1/2-z
1/4+y,3/4+x,3/4-z
3/4-y,3/4-x,3/4-z
1/2-x,1/2-y,1/2-z
1/4+y,3/4-x,1/4-z
1/2+x,y,1/2-z
1/4-y,1/4+x,3/4-z
1/2-x,1/2+y,z
x,1/2-y,1/2+z
3/4-y,1/4-x,1/4+z
1/4+y,1/4+x,1/4+z
loop_
_atom_site_type_symbol
_atom_site_label
_atom_site_fract_x
_atom_site_fract_y
_atom_site_fract_z
Si Si1 0.014312 0.000000 0.250000
Si Si2 0.008152 0.442298 0.423854
Si Si3 0.207234 0.602683 0.196653
Si Si4 0.199104 0.050897 0.625000
Si Si5 0.118418 0.371305 0.534225
O O1 0.971470 0.020234 0.335358
O O2 0.067923 0.066317 0.233546
O O3 0.924789 0.422823 0.412147
O O4 0.000000 0.500000 0.500000
O O5 0.058228 0.380930 0.462729
O O6 0.179655 0.590788 0.290559
O O7 0.189839 0.533949 0.141430
O O8 0.294733 0.607348 0.201776
O O9 0.093072 0.343072 0.625000
#
# Coordination Sequence:
#
# PCOD9573425 Si02
#       5
#    16  32  32  16  32
#     4  12  20  40  68  94 138 180 222 288 340 416
#     4  10  21  37  59  96 128 173 228 267 333 418
#     4  10  17  31  50  92 131 167 220 262 338 406
#     4  10  18  28  56  88 133 178 204 281 340 390
#     4  11  20  36  65  90 130 176 221 270 343 413
#
# _framework density 23.152052000000001
#
# number of rings (size 3 to 8) (size 9 to 14) (size 15 to 20)
#    0.000    1.500    6.250    3.000    0.000    0.000 
#    0.000   15.000    0.000    0.750    0.000    0.000 
#    0.000    0.000    0.000    0.000    0.000    0.000 
#
# Total GULP energy -357359.827019 kJ/mol
# GULP energy per Si atom -5583.747297 kJ/mol
# Density = 2.309936 g / cm^3
# Si number density = 23.152052 Si / 1000 Ang^3
#
#
#
# Elastic Constant Matrix: (Units=GPa)
#
#
# Indices 1 2 3 4 5 6 
#
# 1 79.6373 26.9753 35.8909 0.0000 0.0000 0.0000
# 2 26.9753 79.6351 35.8899 0.0000 0.0000 0.0000
# 3 35.8909 35.8899 200.6784 0.0000 0.0000 0.0000
# 4 0.0000 0.0000 0.0000 28.2414 0.0000 0.0000
# 5 0.0000 0.0000 0.0000 0.0000 28.2417 0.0000
# 6 0.0000 0.0000 0.0000 0.0000 0.0000 26.1046
#
#
#
# Elastic Compliance Matrix: (Units=1/GPa)
#
#
# Indices 1 2 3 4 5 6 
#
# 1 0.014826 -0.004163 -0.001907 0.000000 0.000000 0.000000
# 2 -0.004163 0.014827 -0.001907 0.000000 0.000000 0.000000
# 3 -0.001907 -0.001907 0.005665 0.000000 0.000000 0.000000
# 4 0.000000 0.000000 0.000000 0.035409 0.000000 0.000000
# 5 0.000000 0.000000 0.000000 0.000000 0.035409 0.000000
# 6 0.000000 0.000000 0.000000 0.000000 0.000000 0.038307
#
#
# Mechanical properties :
#
#
# Convention : Reuss Voigt Hill
#
# Bulk Modulus (GPa) = 51.64115 61.94033 56.79074
# Shear Modulus (GPa) = 29.96655 33.93052 31.94854
#
# Velocity S-wave (km/s) = 3.60159 3.83241 3.71879
# Velocity P-wave (km/s) = 6.29674 6.81138 6.55911
#
# Compressibility (1/GPa) = 0.01936440
#
# Stress axis : x y z
#
# Youngs Moduli (GPa) = 67.44685 67.44512 176.51355
#
# Poissons Ratio (x) = 0.28076 0.33665
# Poissons Ratio (y) = 0.28076 0.33664
# Poissons Ratio (z) = 0.12864 0.12863
#
# Static dielectric constant tensor:
#      x y z
#    x 1.923950 0.000000 0.000000 
#    y 0.000000 1.923960 0.000000 
#    z 0.000000 0.000000 2.008360 
# 
# From -- ./inp_files/7178.got.cif
#   From: 2010.05.17/outbox.cif.g08.bks.cpg/sg142_4_cif.got.tgz:7178.got - 2010.05.20 13:39:18.
