data_PCOD9573747
_publ_section_title
;
Structure prediction by ZEFSAII (Michael W. Deem and Ramdas Pophale) SiO2 
 PCOD9573747
Probable space group: I 41/A C D
;
_chemical_formula_sum "Si O2"
_cell_formula_units_Z 224
_cell_length_a 22.960883
_cell_length_b 22.960883
_cell_length_c 21.886844
_cell_angle_alpha 90.000000
_cell_angle_beta 90.000000
_cell_angle_gamma 90.000000
_cell_volume 11538.791173
_symmetry_space_group_name_H-M "I 41/A C D"
_symmetry_group_IT_number 142
_space_group.IT_coordinate_system_code '2'
_symmetry_cell_setting 'tetragonal'
loop_
_space_group_symop_operation_xyz
x,y,z
1/4-y,3/4+x,1/4+z
-x,1/2-y,z
1/4+y,1/4-x,3/4+z
x,-y,1/2-z
1/2-x,y,-z
3/4+y,1/4+x,1/4-z
1/4-y,1/4-x,1/4-z
-x,-y,-z
3/4+y,1/4-x,3/4-z
x,1/2+y,-z
3/4-y,3/4+x,1/4-z
-x,y,1/2+z
1/2+x,-y,z
1/4-y,3/4-x,3/4+z
3/4+y,3/4+x,3/4+z
1/2+x,1/2+y,1/2+z
3/4-y,1/4+x,3/4+z
1/2-x,-y,1/2+z
3/4+y,3/4-x,1/4+z
1/2+x,1/2-y,-z
-x,1/2+y,1/2-z
1/4+y,3/4+x,3/4-z
3/4-y,3/4-x,3/4-z
1/2-x,1/2-y,1/2-z
1/4+y,3/4-x,1/4-z
1/2+x,y,1/2-z
1/4-y,1/4+x,3/4-z
1/2-x,1/2+y,z
x,1/2-y,1/2+z
3/4-y,1/4-x,1/4+z
1/4+y,1/4+x,1/4+z
loop_
_atom_site_type_symbol
_atom_site_label
_atom_site_fract_x
_atom_site_fract_y
_atom_site_fract_z
Si Si1 0.564817 0.693317 0.350609
Si Si2 0.086109 0.978563 0.513943
Si Si3 0.953939 0.563443 0.274152
Si Si4 0.401713 0.249274 0.880792
Si Si5 0.864418 0.101117 0.832185
Si Si6 0.524984 0.405815 0.496695
Si Si7 0.367563 0.975502 0.618846
O O1 0.496055 0.681150 0.349596
O O2 0.596188 0.637552 0.377525
O O3 0.600353 0.711436 0.289912
O O4 0.134089 0.948660 0.555884
O O5 0.104299 0.962288 0.445715
O O6 0.025499 0.945045 0.527993
O O7 0.076504 0.047681 0.514837
O O8 0.978138 0.500000 0.250000
O O9 0.995462 0.611206 0.307988
O O10 0.912854 0.590165 0.220949
O O11 0.909481 0.547025 0.328088
O O12 0.441414 0.191414 0.875000
O O13 0.446068 0.303933 0.875000
O O14 0.363941 0.253710 0.819513
O O15 0.862370 0.043859 0.872436
O O16 0.306659 0.943342 0.625000
#
# Coordination Sequence:
#
# PCOD9573747 Si02
#       7
#    32  32  32  32  32  32  32
#     4  11  24  37  58  91 132 166 200 252 316 382
#     4  11  21  37  63  83 124 163 204 254 307 375
#     4  10  21  35  60  90 123 156 208 265 307 360
#     4  11  24  39  63  92 124 165 208 258 315 378
#     4  11  22  38  59  95 124 161 207 258 320 367
#     4  11  23  40  59  87 121 167 208 246 308 378
#     4  11  20  36  60  93 119 155 210 267 312 359
#
# _framework density 19.412777999999999
#
# number of rings (size 3 to 8) (size 9 to 14) (size 15 to 20)
#    0.000    1.143    5.714    1.286    2.000    1.143 
#    0.000    0.714    0.000    0.000    0.000    0.000 
#    0.000    0.000    0.000    0.000    0.000    0.000 
#
# Total GULP energy -624625.775981 kJ/mol
# GULP energy per Si atom -5577.015857 kJ/mol
# Density = 1.936859 g / cm^3
# Si number density = 19.412778 Si / 1000 Ang^3
#
#
#
# Elastic Constant Matrix: (Units=GPa)
#
#
# Indices 1 2 3 4 5 6 
#
# 1 67.4242 31.1160 12.1891 0.0000 0.0000 0.0000
# 2 31.1160 67.4152 12.1830 0.0000 0.0000 0.0000
# 3 12.1891 12.1830 46.7060 0.0000 0.0000 0.0000
# 4 0.0000 0.0000 0.0000 26.0565 0.0000 0.0000
# 5 0.0000 0.0000 0.0000 0.0000 26.0574 0.0000
# 6 0.0000 0.0000 0.0000 0.0000 0.0000 34.4816
#
#
#
# Elastic Compliance Matrix: (Units=1/GPa)
#
#
# Indices 1 2 3 4 5 6 
#
# 1 0.019196 -0.008348 -0.002832 0.000000 0.000000 0.000000
# 2 -0.008348 0.019198 -0.002829 0.000000 0.000000 0.000000
# 3 -0.002832 -0.002829 0.022888 0.000000 0.000000 0.000000
# 4 0.000000 0.000000 0.000000 0.038378 0.000000 0.000000
# 5 0.000000 0.000000 0.000000 0.000000 0.038377 0.000000
# 6 0.000000 0.000000 0.000000 0.000000 0.000000 0.029001
#
#
# Mechanical properties :
#
#
# Convention : Reuss Voigt Hill
#
# Bulk Modulus (GPa) = 30.06356 32.50237 31.28297
# Shear Modulus (GPa) = 24.25489 25.72292 24.98890
#
# Velocity S-wave (km/s) = 3.53856 3.64407 3.59170
# Velocity P-wave (km/s) = 5.67585 5.87238 5.77495
#
# Compressibility (1/GPa) = 0.03326286
#
# Stress axis : x y z
#
# Youngs Moduli (GPa) = 52.09367 52.08893 43.69191
#
# Poissons Ratio (x) = 0.43486 0.12374
# Poissons Ratio (y) = 0.43490 0.12360
# Poissons Ratio (z) = 0.14753 0.14736
#
# Static dielectric constant tensor:
#      x y z
#    x 1.712560 0.000000 0.000000 
#    y 0.000000 1.712560 0.000000 
#    z 0.000000 0.000000 1.682890 
# 
# From -- ./inp_files/10561.got.cif
#   From: 2010.05.17/outbox.cif.g08.bks.cpg/sg142_6_cif.got.tgz:10561.got - 2010.05.20 13:39:18.
