data_PCOD9573915
_publ_section_title
;
Structure prediction by ZEFSAII (Michael W. Deem and Ramdas Pophale) SiO2 
 PCOD9573915
Probable space group: I 41/A C D
;
_chemical_formula_sum "Si O2"
_cell_formula_units_Z 160
_cell_length_a 20.153707
_cell_length_b 20.153707
_cell_length_c 17.886704
_cell_angle_alpha 90.000000
_cell_angle_beta 90.000000
_cell_angle_gamma 90.000000
_cell_volume 7265.076653
_symmetry_space_group_name_H-M "I 41/A C D"
_symmetry_group_IT_number 142
_space_group.IT_coordinate_system_code '2'
_symmetry_cell_setting 'tetragonal'
loop_
_space_group_symop_operation_xyz
x,y,z
1/4-y,3/4+x,1/4+z
-x,1/2-y,z
1/4+y,1/4-x,3/4+z
x,-y,1/2-z
1/2-x,y,-z
3/4+y,1/4+x,1/4-z
1/4-y,1/4-x,1/4-z
-x,-y,-z
3/4+y,1/4-x,3/4-z
x,1/2+y,-z
3/4-y,3/4+x,1/4-z
-x,y,1/2+z
1/2+x,-y,z
1/4-y,3/4-x,3/4+z
3/4+y,3/4+x,3/4+z
1/2+x,1/2+y,1/2+z
3/4-y,1/4+x,3/4+z
1/2-x,-y,1/2+z
3/4+y,3/4-x,1/4+z
1/2+x,1/2-y,-z
-x,1/2+y,1/2-z
1/4+y,3/4+x,3/4-z
3/4-y,3/4-x,3/4-z
1/2-x,1/2-y,1/2-z
1/4+y,3/4-x,1/4-z
1/2+x,y,1/2-z
1/4-y,1/4+x,3/4-z
1/2-x,1/2+y,z
x,1/2-y,1/2+z
3/4-y,1/4-x,1/4+z
1/4+y,1/4+x,1/4+z
loop_
_atom_site_type_symbol
_atom_site_label
_atom_site_fract_x
_atom_site_fract_y
_atom_site_fract_z
Si Si1 0.216404 0.429720 0.709536
Si Si2 0.476571 0.643822 0.393924
Si Si3 0.190632 0.305230 0.061853
Si Si4 0.172541 0.172674 0.996088
Si Si5 0.411941 0.922581 0.023162
O O1 0.232616 0.500000 0.750000
O O2 0.199384 0.449384 0.625000
O O3 0.149975 0.393926 0.740907
O O4 0.276538 0.379569 0.722290
O O5 0.424144 0.703690 0.381391
O O6 0.453506 0.590822 0.333927
O O7 0.470289 0.611678 0.475256
O O8 0.207355 0.316451 0.149203
O O9 0.138348 0.362526 0.042283
O O10 0.250000 0.308623 0.000000
O O11 0.157951 0.232203 0.053257
O O12 0.250000 0.158620 0.000000
#
# Coordination Sequence:
#
# PCOD9573915 Si02
#       5
#    32  32  32  32  32
#     4  11  25  41  66 101 142 180 225 285 360 425
#     4  11  24  45  71  98 135 187 240 295 355 423
#     4  10  23  41  66 101 141 175 228 290 341 423
#     4  10  22  43  65  95 142 177 219 293 345 415
#     4  11  23  41  71 103 130 186 236 284 356 417
#
# _framework density 22.023167999999998
#
# number of rings (size 3 to 8) (size 9 to 14) (size 15 to 20)
#    0.000    1.400    2.000    3.000    8.400    1.600 
#    0.000    6.000    0.000    0.000    0.000    0.000 
#    0.000    0.000    0.000    0.000    0.000    0.000 
#
# Total GULP energy -446702.374019 kJ/mol
# GULP energy per Si atom -5583.779675 kJ/mol
# Density = 2.197304 g / cm^3
# Si number density = 22.023168 Si / 1000 Ang^3
#
#
#
# Elastic Constant Matrix: (Units=GPa)
#
#
# Indices 1 2 3 4 5 6 
#
# 1 78.9626 10.6442 13.6936 0.0000 0.0000 0.0000
# 2 10.6442 78.9626 13.6936 0.0000 0.0000 0.0000
# 3 13.6936 13.6936 121.7611 0.0000 0.0000 0.0000
# 4 0.0000 0.0000 0.0000 29.1582 0.0000 0.0000
# 5 0.0000 0.0000 0.0000 0.0000 29.1582 0.0000
# 6 0.0000 0.0000 0.0000 0.0000 0.0000 -5.7045
#
#
#
# Elastic Compliance Matrix: (Units=1/GPa)
#
#
# Indices 1 2 3 4 5 6 
#
# 1 0.013097 -0.001540 -0.001300 0.000000 0.000000 0.000000
# 2 -0.001540 0.013097 -0.001300 0.000000 0.000000 0.000000
# 3 -0.001300 -0.001300 0.008505 0.000000 0.000000 0.000000
# 4 0.000000 0.000000 0.000000 0.034296 0.000000 0.000000
# 5 0.000000 0.000000 0.000000 0.000000 0.034296 0.000000
# 6 0.000000 0.000000 0.000000 0.000000 0.000000 -0.175301
#
#
# Mechanical properties :
#
#
# Convention : Reuss Voigt Hill
#
# Bulk Modulus (GPa) = 37.84955 39.52769 38.68862
# Shear Modulus (GPa) = -91.03509 26.63271 -32.20119
#
# Velocity S-wave (km/s) = -6.43629 3.48128 -3.82796
# Velocity P-wave (km/s) = 6.16529 5.84348 1.39007
#
# Compressibility (1/GPa) = 0.02642039
#
# Stress axis : x y z
#
# Youngs Moduli (GPa) = 76.35197 76.35197 117.57584
#
# Poissons Ratio (x) = 0.11759 0.15282
# Poissons Ratio (y) = 0.11759 0.15282
# Poissons Ratio (z) = 0.09924 0.09924
#
# Static dielectric constant tensor:
#      x y z
#    x 1.843920 0.000000 0.000000 
#    y 0.000000 1.843920 0.000000 
#    z 0.000000 0.000000 1.833620 
# 
# From -- ./inp_files/7361.got.cif
#   From: 2010.05.17/outbox.cif.g08.bks.cpg/sg142_4_cif.got.tgz:7361.got - 2010.05.20 13:39:18.
