data_PCOD9573793
_publ_section_title
;
Structure prediction by ZEFSAII (Michael W. Deem and Ramdas Pophale) SiO2 
 PCOD9573793
Probable space group: I 41/A C D
;
_chemical_formula_sum "Si O2"
_cell_formula_units_Z 144
_cell_length_a 20.006439
_cell_length_b 20.006439
_cell_length_c 18.411565
_cell_angle_alpha 90.000000
_cell_angle_beta 90.000000
_cell_angle_gamma 90.000000
_cell_volume 7369.368846
_symmetry_space_group_name_H-M "I 41/A C D"
_symmetry_group_IT_number 142
_space_group.IT_coordinate_system_code '2'
_symmetry_cell_setting 'tetragonal'
loop_
_space_group_symop_operation_xyz
x,y,z
1/4-y,3/4+x,1/4+z
-x,1/2-y,z
1/4+y,1/4-x,3/4+z
x,-y,1/2-z
1/2-x,y,-z
3/4+y,1/4+x,1/4-z
1/4-y,1/4-x,1/4-z
-x,-y,-z
3/4+y,1/4-x,3/4-z
x,1/2+y,-z
3/4-y,3/4+x,1/4-z
-x,y,1/2+z
1/2+x,-y,z
1/4-y,3/4-x,3/4+z
3/4+y,3/4+x,3/4+z
1/2+x,1/2+y,1/2+z
3/4-y,1/4+x,3/4+z
1/2-x,-y,1/2+z
3/4+y,3/4-x,1/4+z
1/2+x,1/2-y,-z
-x,1/2+y,1/2-z
1/4+y,3/4+x,3/4-z
3/4-y,3/4-x,3/4-z
1/2-x,1/2-y,1/2-z
1/4+y,3/4-x,1/4-z
1/2+x,y,1/2-z
1/4-y,1/4+x,3/4-z
1/2-x,1/2+y,z
x,1/2-y,1/2+z
3/4-y,1/4-x,1/4+z
1/4+y,1/4+x,1/4+z
loop_
_atom_site_type_symbol
_atom_site_label
_atom_site_fract_x
_atom_site_fract_y
_atom_site_fract_z
Si Si1 0.254794 0.231645 0.633985
Si Si2 0.285314 0.058094 0.159918
Si Si3 0.407953 0.933339 0.522889
Si Si4 0.179976 0.833836 0.542263
Si Si5 0.250000 0.645391 0.500000
O O1 0.282651 0.186827 0.699612
O O2 0.202418 0.285200 0.667498
O O3 0.317662 0.269982 0.595615
O O4 0.224989 0.188748 0.567894
O O5 0.222082 0.092297 0.198508
O O6 0.309411 0.104003 0.095229
O O7 0.345076 0.053625 0.216470
O O8 0.261562 0.988439 0.125000
O O9 0.382498 0.857757 0.506782
O O10 0.250000 0.827041 0.500000
#
# Coordination Sequence:
#
# PCOD9573793 Si02
#       5
#    32  32  32  32  16
#     4  10  23  36  54  86 122 158 195 241 307 354
#     4  11  21  32  58  91 120 151 181 244 324 371
#     4  10  21  40  57  85 122 156 196 242 307 379
#     4  11  19  35  59  83 115 150 196 240 296 363
#     4  12  22  34  50  90 128 148 194 246 300 370
#
# _framework density 19.540344000000001
#
# number of rings (size 3 to 8) (size 9 to 14) (size 15 to 20)
#    0.000    1.333    5.556    1.333    0.000    0.000 
#    0.000    0.000    0.000    0.667    0.000    0.000 
#   26.667    0.000    0.000    0.000    0.000    0.000 
#
# Total GULP energy -401149.004865 kJ/mol
# GULP energy per Si atom -5571.513956 kJ/mol
# Density = 1.949587 g / cm^3
# Si number density = 19.540344 Si / 1000 Ang^3
#
#
#
# Elastic Constant Matrix: (Units=GPa)
#
#
# Indices 1 2 3 4 5 6 
#
# 1 61.6775 13.2392 32.2905 0.0000 0.0000 0.0000
# 2 13.2392 61.6803 32.2909 0.0000 0.0000 0.0000
# 3 32.2905 32.2909 117.1151 0.0000 0.0000 0.0000
# 4 0.0000 0.0000 0.0000 35.3379 0.0000 0.0000
# 5 0.0000 0.0000 0.0000 0.0000 35.3361 0.0000
# 6 0.0000 0.0000 0.0000 0.0000 0.0000 3.1861
#
#
#
# Elastic Compliance Matrix: (Units=1/GPa)
#
#
# Indices 1 2 3 4 5 6 
#
# 1 0.019077 -0.001567 -0.004828 0.000000 0.000000 0.000000
# 2 -0.001567 0.019076 -0.004828 0.000000 0.000000 0.000000
# 3 -0.004828 -0.004828 0.011201 0.000000 0.000000 0.000000
# 4 0.000000 0.000000 0.000000 0.028298 0.000000 0.000000
# 5 0.000000 0.000000 0.000000 0.000000 0.028300 0.000000
# 6 0.000000 0.000000 0.000000 0.000000 0.000000 0.313863
#
#
# Mechanical properties :
#
#
# Convention : Reuss Voigt Hill
#
# Bulk Modulus (GPa) = 37.16220 44.01267 40.58744
# Shear Modulus (GPa) = 11.08082 25.61549 18.34815
#
# Velocity S-wave (km/s) = 2.38391 3.62457 3.06762
# Velocity P-wave (km/s) = 5.16109 6.33163 5.77609
#
# Compressibility (1/GPa) = 0.02690906
#
# Stress axis : x y z
#
# Youngs Moduli (GPa) = 52.41820 52.42075 89.27956
#
# Poissons Ratio (x) = 0.08216 0.43102
# Poissons Ratio (y) = 0.08216 0.43101
# Poissons Ratio (z) = 0.25306 0.25307
#
# Static dielectric constant tensor:
#      x y z
#    x 1.714820 0.000000 0.000000 
#    y 0.000000 1.714820 0.000000 
#    z 0.000000 0.000000 1.793010 
# 
# From -- ./inp_files/7262.got.cif
#   From: 2010.05.17/outbox.cif.g08.bks.cpg/sg142_4_cif.got.tgz:7262.got - 2010.05.20 13:39:18.
