data_PCOD9573562
_publ_section_title
;
Structure prediction by ZEFSAII (Michael W. Deem and Ramdas Pophale) SiO2 
 PCOD9573562
Probable space group: I 41/A C D
;
_chemical_formula_sum "Si O2"
_cell_formula_units_Z 136
_cell_length_a 16.994905
_cell_length_b 16.994905
_cell_length_c 26.370058
_cell_angle_alpha 90.000000
_cell_angle_beta 90.000000
_cell_angle_gamma 90.000000
_cell_volume 7616.379361
_symmetry_space_group_name_H-M "I 41/A C D"
_symmetry_group_IT_number 142
_space_group.IT_coordinate_system_code '2'
_symmetry_cell_setting 'tetragonal'
loop_
_space_group_symop_operation_xyz
x,y,z
1/4-y,3/4+x,1/4+z
-x,1/2-y,z
1/4+y,1/4-x,3/4+z
x,-y,1/2-z
1/2-x,y,-z
3/4+y,1/4+x,1/4-z
1/4-y,1/4-x,1/4-z
-x,-y,-z
3/4+y,1/4-x,3/4-z
x,1/2+y,-z
3/4-y,3/4+x,1/4-z
-x,y,1/2+z
1/2+x,-y,z
1/4-y,3/4-x,3/4+z
3/4+y,3/4+x,3/4+z
1/2+x,1/2+y,1/2+z
3/4-y,1/4+x,3/4+z
1/2-x,-y,1/2+z
3/4+y,3/4-x,1/4+z
1/2+x,1/2-y,-z
-x,1/2+y,1/2-z
1/4+y,3/4+x,3/4-z
3/4-y,3/4-x,3/4-z
1/2-x,1/2-y,1/2-z
1/4+y,3/4-x,1/4-z
1/2+x,y,1/2-z
1/4-y,1/4+x,3/4-z
1/2-x,1/2+y,z
x,1/2-y,1/2+z
3/4-y,1/4-x,1/4+z
1/4+y,1/4+x,1/4+z
loop_
_atom_site_type_symbol
_atom_site_label
_atom_site_fract_x
_atom_site_fract_y
_atom_site_fract_z
Si Si1 0.853716 0.919816 0.116316
Si Si2 0.000000 0.750000 0.375000
Si Si3 0.681760 0.270718 0.183851
Si Si4 0.709856 0.951159 0.554238
Si Si5 0.855973 0.780714 0.297010
O O1 0.831070 0.840716 0.144593
O O2 0.938200 0.911155 0.091474
O O3 0.795712 0.958995 0.074771
O O4 0.851435 0.987284 0.159033
O O5 0.924547 0.755002 0.336267
O O6 0.775527 0.268766 0.195314
O O7 0.631914 0.277087 0.236020
O O8 0.750000 0.950021 0.500000
O O9 0.621843 0.917368 0.555632
#
# Coordination Sequence:
#
# PCOD9573562 Si02
#       5
#    32   8  32  32  32
#     4  10  21  35  62  86 120 155 202 245 305 365
#     4  12  24  40  64  94 120 160 200 260 312 350
#     4  10  21  40  57  87 121 160 196 250 299 361
#     4  10  19  40  64  85 113 168 205 245 305 368
#     4  10  22  40  61  84 124 157 200 248 305 359
#
# _framework density 17.856254
#
# number of rings (size 3 to 8) (size 9 to 14) (size 15 to 20)
#    0.000    1.882    2.353    2.824    0.000    4.235 
#    0.000    1.176    0.000    0.000    0.000    0.000 
#    0.000    0.000    0.000    0.000    0.000    0.000 
#
# Total GULP energy -378777.375859 kJ/mol
# GULP energy per Si atom -5570.255527 kJ/mol
# Density = 1.781561 g / cm^3
# Si number density = 17.856254 Si / 1000 Ang^3
#
#
#
# Elastic Constant Matrix: (Units=GPa)
#
#
# Indices 1 2 3 4 5 6 
#
# 1 43.7313 13.0262 29.8166 0.0000 0.0000 0.0000
# 2 13.0262 43.7313 29.8166 0.0000 0.0000 0.0000
# 3 29.8166 29.8166 114.9832 0.0000 0.0000 0.0000
# 4 0.0000 0.0000 0.0000 35.5950 0.0000 0.0000
# 5 0.0000 0.0000 0.0000 0.0000 35.5950 0.0000
# 6 0.0000 0.0000 0.0000 0.0000 0.0000 12.9227
#
#
#
# Elastic Compliance Matrix: (Units=1/GPa)
#
#
# Indices 1 2 3 4 5 6 
#
# 1 0.028392 -0.004176 -0.006280 0.000000 0.000000 0.000000
# 2 -0.004176 0.028392 -0.006280 0.000000 0.000000 0.000000
# 3 -0.006280 -0.006280 0.011954 0.000000 0.000000 0.000000
# 4 0.000000 0.000000 0.000000 0.028094 0.000000 0.000000
# 5 0.000000 0.000000 0.000000 0.000000 0.028094 0.000000
# 6 0.000000 0.000000 0.000000 0.000000 0.000000 0.077383
#
#
# Mechanical properties :
#
#
# Convention : Reuss Voigt Hill
#
# Bulk Modulus (GPa) = 28.35408 38.64051 33.49729
# Shear Modulus (GPa) = 20.19913 25.47496 22.83705
#
# Velocity S-wave (km/s) = 3.36699 3.78122 3.58010
# Velocity P-wave (km/s) = 5.57037 6.38360 5.99080
#
# Compressibility (1/GPa) = 0.03526829
#
# Stress axis : x y z
#
# Youngs Moduli (GPa) = 35.22086 35.22086 83.65599
#
# Poissons Ratio (x) = 0.14707 0.52533
# Poissons Ratio (y) = 0.14707 0.52533
# Poissons Ratio (z) = 0.22118 0.22118
#
# Static dielectric constant tensor:
#      x y z
#    x 1.631750 0.000000 0.000000 
#    y 0.000000 1.631750 0.000000 
#    z 0.000000 0.000000 1.657890 
# 
# From -- ./inp_files/10142.got.cif
#   From: 2010.05.17/outbox.cif.g08.bks.cpg/sg142_6_cif.got.tgz:10142.got - 2010.05.20 13:39:18.
