data_PCOD9573348
_publ_section_title
;
Structure prediction by ZEFSAII (Michael W. Deem and Ramdas Pophale) SiO2 
 PCOD9573348
Probable space group: I 41/A M D
;
_chemical_formula_sum "Si O2"
_cell_formula_units_Z 132
_cell_length_a 21.869264
_cell_length_b 21.869264
_cell_length_c 14.216197
_cell_angle_alpha 90.000000
_cell_angle_beta 90.000000
_cell_angle_gamma 90.000000
_cell_volume 6799.105306
_symmetry_space_group_name_H-M "I 41/A M D"
_symmetry_group_IT_number 141
_space_group.IT_coordinate_system_code '2'
_symmetry_cell_setting 'tetragonal'
loop_
_space_group_symop_operation_xyz
x,y,z
1/4-y,3/4+x,1/4+z
-x,1/2-y,z
1/4+y,1/4-x,3/4+z
x,-y,-z
-x,1/2+y,-z
1/4+y,3/4+x,1/4-z
1/4-y,1/4-x,3/4-z
-x,-y,-z
3/4+y,1/4-x,3/4-z
x,1/2+y,-z
3/4-y,3/4+x,1/4-z
-x,y,z
x,1/2-y,z
3/4-y,1/4-x,3/4+z
3/4+y,3/4+x,1/4+z
1/2+x,1/2+y,1/2+z
3/4-y,1/4+x,3/4+z
1/2-x,-y,1/2+z
3/4+y,3/4-x,1/4+z
1/2+x,1/2-y,1/2-z
1/2-x,y,1/2-z
3/4+y,1/4+x,3/4-z
3/4-y,3/4-x,1/4-z
1/2-x,1/2-y,1/2-z
1/4+y,3/4-x,1/4-z
1/2+x,y,1/2-z
1/4-y,1/4+x,3/4-z
1/2-x,1/2+y,1/2+z
1/2+x,-y,1/2+z
1/4-y,3/4-x,1/4+z
1/4+y,1/4+x,3/4+z
loop_
_atom_site_type_symbol
_atom_site_label
_atom_site_fract_x
_atom_site_fract_y
_atom_site_fract_z
Si Si1 0.807239 0.378847 0.465131
Si Si2 0.500000 0.750000 0.875000
Si Si3 0.678457 0.750000 0.727439
Si Si4 0.875869 0.421017 0.638269
Si Si5 0.000000 0.617691 0.687766
Si Si6 0.929246 0.178633 0.987650
O O1 0.840384 0.409617 0.375000
O O2 0.822707 0.414491 0.560922
O O3 0.735937 0.375680 0.440321
O O4 0.836250 0.311176 0.475991
O O5 0.559298 0.750000 0.942439
O O6 0.750000 0.750000 0.750000
O O7 0.666218 0.688454 0.671297
O O8 0.643710 0.750000 0.825568
O O9 0.881984 0.365761 0.711382
O O10 0.914864 0.250000 0.010966
O O11 0.923726 0.173726 0.875000
O O12 0.000000 0.168001 0.013588
#
# Coordination Sequence:
#
# PCOD9573348 Si02
#       6
#    32   4  16  32  16  32
#     4  12  24  40  61  91 135 177 218 260 324 396
#     4  12  20  36  52  92 128 160 214 276 312 356
#     4  12  18  38  62  87 128 169 211 253 334 396
#     4  12  23  40  66  94 126 175 219 262 322 392
#     4  12  22  38  58  91 138 174 204 279 328 384
#     4   9  20  42  68  96 129 164 211 271 330 384
#
# _framework density 19.41432
#
# number of rings (size 3 to 8) (size 9 to 14) (size 15 to 20)
#    0.000    0.727    7.273    1.455    1.697    0.000 
#    2.182    4.848    0.000    2.909    0.000    0.000 
#    0.000    0.000    0.000    0.000    0.000    0.000 
#
# Total GULP energy -368973.294385 kJ/mol
# GULP energy per Si atom -5590.504460 kJ/mol
# Density = 1.937013 g / cm^3
# Si number density = 19.414320 Si / 1000 Ang^3
#
#
#
# Elastic Constant Matrix: (Units=GPa)
#
#
# Indices 1 2 3 4 5 6 
#
# 1 94.9808 29.5499 35.1889 0.0000 0.0000 0.0000
# 2 29.5499 94.9823 35.1890 0.0000 0.0000 0.0000
# 3 35.1889 35.1890 54.1668 0.0000 0.0000 0.0000
# 4 0.0000 0.0000 0.0000 22.3378 0.0000 0.0000
# 5 0.0000 0.0000 0.0000 0.0000 22.3384 0.0000
# 6 0.0000 0.0000 0.0000 0.0000 0.0000 16.0687
#
#
#
# Elastic Compliance Matrix: (Units=1/GPa)
#
#
# Indices 1 2 3 4 5 6 
#
# 1 0.013986 -0.001297 -0.008243 0.000000 0.000000 0.000000
# 2 -0.001297 0.013986 -0.008243 0.000000 0.000000 0.000000
# 3 -0.008243 -0.008243 0.029171 0.000000 0.000000 0.000000
# 4 0.000000 0.000000 0.000000 0.044767 0.000000 0.000000
# 5 0.000000 0.000000 0.000000 0.000000 0.044766 0.000000
# 6 0.000000 0.000000 0.000000 0.000000 0.000000 0.062233
#
#
# Mechanical properties :
#
#
# Convention : Reuss Voigt Hill
#
# Bulk Modulus (GPa) = 46.34656 49.33172 47.83914
# Shear Modulus (GPa) = 19.86744 21.76244 20.81494
#
# Velocity S-wave (km/s) = 3.20244 3.35169 3.27791
# Velocity P-wave (km/s) = 6.13175 6.35952 6.24667
#
# Compressibility (1/GPa) = 0.02157658
#
# Stress axis : x y z
#
# Youngs Moduli (GPa) = 71.50019 71.50153 34.28007
#
# Poissons Ratio (x) = 0.09276 0.28257
# Poissons Ratio (y) = 0.09276 0.28257
# Poissons Ratio (z) = 0.58938 0.58938
#
# Static dielectric constant tensor:
#      x y z
#    x 1.600650 0.000000 0.000000 
#    y 0.000000 1.600660 0.000000 
#    z 0.000000 0.000000 1.631780 
# 
# From -- ./inp_files/6319.got.cif
#   From: 2010.05.17/outbox.cif.g08.bks.cpg/sg141_4_cif.got.tgz:6319.got - 2010.05.20 13:30:51.
