data_PCOD9573582
_publ_section_title
;
Structure prediction by ZEFSAII (Michael W. Deem and Ramdas Pophale) SiO2 
 PCOD9573582
Probable space group: I 41/A C D
;
_chemical_formula_sum "Si O2"
_cell_formula_units_Z 136
_cell_length_a 17.651781
_cell_length_b 17.651781
_cell_length_c 19.767693
_cell_angle_alpha 90.000000
_cell_angle_beta 90.000000
_cell_angle_gamma 90.000000
_cell_volume 6159.323986
_symmetry_space_group_name_H-M "I 41/A C D"
_symmetry_group_IT_number 142
_space_group.IT_coordinate_system_code '2'
_symmetry_cell_setting 'tetragonal'
loop_
_space_group_symop_operation_xyz
x,y,z
1/4-y,3/4+x,1/4+z
-x,1/2-y,z
1/4+y,1/4-x,3/4+z
x,-y,1/2-z
1/2-x,y,-z
3/4+y,1/4+x,1/4-z
1/4-y,1/4-x,1/4-z
-x,-y,-z
3/4+y,1/4-x,3/4-z
x,1/2+y,-z
3/4-y,3/4+x,1/4-z
-x,y,1/2+z
1/2+x,-y,z
1/4-y,3/4-x,3/4+z
3/4+y,3/4+x,3/4+z
1/2+x,1/2+y,1/2+z
3/4-y,1/4+x,3/4+z
1/2-x,-y,1/2+z
3/4+y,3/4-x,1/4+z
1/2+x,1/2-y,-z
-x,1/2+y,1/2-z
1/4+y,3/4+x,3/4-z
3/4-y,3/4-x,3/4-z
1/2-x,1/2-y,1/2-z
1/4+y,3/4-x,1/4-z
1/2+x,y,1/2-z
1/4-y,1/4+x,3/4-z
1/2-x,1/2+y,z
x,1/2-y,1/2+z
3/4-y,1/4-x,1/4+z
1/4+y,1/4+x,1/4+z
loop_
_atom_site_type_symbol
_atom_site_label
_atom_site_fract_x
_atom_site_fract_y
_atom_site_fract_z
Si Si1 0.188889 0.561112 0.875000
Si Si2 0.548891 0.089761 0.742371
Si Si3 0.140212 0.890212 0.875000
Si Si4 0.000000 0.750000 0.875000
Si Si5 0.918781 0.143487 0.520512
Si Si6 0.869290 0.567321 0.605992
O O1 0.160662 0.613673 0.813794
O O2 0.277000 0.577803 0.895052
O O3 0.588636 0.118916 0.809902
O O4 0.467249 0.126587 0.741056
O O5 0.600379 0.100712 0.676651
O O6 0.539677 0.000000 0.750000
O O7 0.226690 0.876671 0.854300
O O8 0.980333 0.820050 0.927898
O O9 0.927335 0.096483 0.451546
#
# Coordination Sequence:
#
# PCOD9573582 Si02
#       6
#    16  32  16   8  32  32
#     4  10  20  37  61  89 118 155 209 273 338 398
#     4  10  20  34  55  83 115 153 196 249 316 388
#     4   9  19  37  58  88 126 158 202 271 339 395
#     4  10  26  42  56  80 120 170 206 254 322 396
#     4  11  22  39  59  83 120 163 207 259 328 399
#     4  10  20  35  61  91 118 155 211 274 329 396
#
# _framework density 22.080345000000001
#
# number of rings (size 3 to 8) (size 9 to 14) (size 15 to 20)
#    0.000    1.882    0.000    4.235    0.000    5.647 
#    0.000    0.000    0.000   15.529    0.000    0.000 
#    0.000    0.000    0.000    0.000    0.000    0.000 
#
# Total GULP energy -378820.731094 kJ/mol
# GULP energy per Si atom -5570.893104 kJ/mol
# Density = 2.203009 g / cm^3
# Si number density = 22.080345 Si / 1000 Ang^3
#
#
#
# Elastic Constant Matrix: (Units=GPa)
#
#
# Indices 1 2 3 4 5 6 
#
# 1 57.3060 40.3908 16.2181 0.0000 0.0000 0.0000
# 2 40.3908 57.3051 16.2182 0.0000 0.0000 0.0000
# 3 16.2181 16.2182 44.5157 0.0000 0.0000 0.0000
# 4 0.0000 0.0000 0.0000 21.9331 0.0000 0.0000
# 5 0.0000 0.0000 0.0000 0.0000 21.9345 0.0000
# 6 0.0000 0.0000 0.0000 0.0000 0.0000 -15.9175
#
#
#
# Elastic Compliance Matrix: (Units=1/GPa)
#
#
# Indices 1 2 3 4 5 6 
#
# 1 0.035382 -0.023738 -0.004242 0.000000 0.000000 0.000000
# 2 -0.023738 0.035382 -0.004242 0.000000 0.000000 0.000000
# 3 -0.004242 -0.004242 0.025555 0.000000 0.000000 0.000000
# 4 0.000000 0.000000 0.000000 0.045593 0.000000 0.000000
# 5 0.000000 0.000000 0.000000 0.000000 0.045590 0.000000
# 6 0.000000 0.000000 0.000000 0.000000 0.000000 -0.062824
#
#
# Mechanical properties :
#
#
# Convention : Reuss Voigt Hill
#
# Bulk Modulus (GPa) = 31.37303 33.86455 32.61879
# Shear Modulus (GPa) = 25.03147 11.34333 18.18740
#
# Velocity S-wave (km/s) = 3.37063 2.26902 2.87312
# Velocity P-wave (km/s) = 5.42104 4.71539 5.08048
#
# Compressibility (1/GPa) = 0.03187452
#
# Stress axis : x y z
#
# Youngs Moduli (GPa) = 28.26316 28.26265 39.13114
#
# Poissons Ratio (x) = 0.67089 0.16600
# Poissons Ratio (y) = 0.67090 0.16601
# Poissons Ratio (z) = 0.11990 0.11990
#
# Static dielectric constant tensor:
#      x y z
#    x 1.848070 0.000000 0.000000 
#    y 0.000000 1.848070 0.000000 
#    z 0.000000 0.000000 2.035460 
# 
# From -- ./inp_files/8857.got.cif
#   From: 2010.05.17/outbox.cif.g08.bks.cpg/sg142_5_cif.got.tgz:8857.got - 2010.05.20 13:39:18.
