data_PCOD9573400
_publ_section_title
;
Structure prediction by ZEFSAII (Michael W. Deem and Ramdas Pophale) SiO2 
 PCOD9573400
Probable space group: I 41/A C D
;
_chemical_formula_sum "Si O2"
_cell_formula_units_Z 192
_cell_length_a 21.128241
_cell_length_b 21.128241
_cell_length_c 22.315301
_cell_angle_alpha 90.000000
_cell_angle_beta 90.000000
_cell_angle_gamma 90.000000
_cell_volume 9961.607667
_symmetry_space_group_name_H-M "I 41/A C D"
_symmetry_group_IT_number 142
_space_group.IT_coordinate_system_code '2'
_symmetry_cell_setting 'tetragonal'
loop_
_space_group_symop_operation_xyz
x,y,z
1/4-y,3/4+x,1/4+z
-x,1/2-y,z
1/4+y,1/4-x,3/4+z
x,-y,1/2-z
1/2-x,y,-z
3/4+y,1/4+x,1/4-z
1/4-y,1/4-x,1/4-z
-x,-y,-z
3/4+y,1/4-x,3/4-z
x,1/2+y,-z
3/4-y,3/4+x,1/4-z
-x,y,1/2+z
1/2+x,-y,z
1/4-y,3/4-x,3/4+z
3/4+y,3/4+x,3/4+z
1/2+x,1/2+y,1/2+z
3/4-y,1/4+x,3/4+z
1/2-x,-y,1/2+z
3/4+y,3/4-x,1/4+z
1/2+x,1/2-y,-z
-x,1/2+y,1/2-z
1/4+y,3/4+x,3/4-z
3/4-y,3/4-x,3/4-z
1/2-x,1/2-y,1/2-z
1/4+y,3/4-x,1/4-z
1/2+x,y,1/2-z
1/4-y,1/4+x,3/4-z
1/2-x,1/2+y,z
x,1/2-y,1/2+z
3/4-y,1/4-x,1/4+z
1/4+y,1/4+x,1/4+z
loop_
_atom_site_type_symbol
_atom_site_label
_atom_site_fract_x
_atom_site_fract_y
_atom_site_fract_z
Si Si1 0.951150 0.461116 0.150320
Si Si2 0.201772 0.048229 0.125000
Si Si3 0.353194 0.761038 0.394357
Si Si4 0.357138 0.353633 0.506882
Si Si5 0.979810 0.154163 0.575561
Si Si6 0.938817 0.294199 0.788925
Si Si7 0.706603 0.500000 0.750000
O O1 0.875309 0.461844 0.130971
O O2 0.984736 0.527972 0.144472
O O3 0.945634 0.434773 0.217797
O O4 0.988776 0.410386 0.111169
O O5 0.234044 0.020365 0.185232
O O6 0.372039 0.825285 0.429256
O O7 0.387612 0.707590 0.434377
O O8 0.381922 0.766491 0.328362
O O9 0.420571 0.359773 0.468763
O O10 0.312292 0.413934 0.513034
O O11 0.953245 0.203245 0.625000
O O12 0.036132 0.175909 0.531914
O O13 0.000000 0.250000 0.800739
#
# Coordination Sequence:
#
# PCOD9573400 Si02
#       7
#    32  16  32  32  32  32  16
#     4  10  19  33  59  89 118 152 202 265 318 367
#     4  10  16  30  52  94 117 146 202 268 327 368
#     4  12  20  36  53  82 124 160 200 249 313 378
#     4  10  16  30  58  85 116 147 194 262 315 363
#     4  10  20  37  57  87 121 156 212 260 312 375
#     4  12  23  36  53  83 126 168 205 245 310 377
#     4  10  16  28  52  90 118 146 198 264 330 372
#
# _framework density 19.273997000000001
#
# number of rings (size 3 to 8) (size 9 to 14) (size 15 to 20)
#    0.000    1.333   10.833    0.000    0.000    1.000 
#    0.000    0.000    0.000    0.000    4.333    2.333 
#    0.000    0.000    0.000    0.000    0.000    0.000 
#
# Total GULP energy -534698.904570 kJ/mol
# GULP energy per Si atom -5569.780256 kJ/mol
# Density = 1.923013 g / cm^3
# Si number density = 19.273997 Si / 1000 Ang^3
#
#
#
# Elastic Constant Matrix: (Units=GPa)
#
#
# Indices 1 2 3 4 5 6 
#
# 1 67.1583 33.6329 27.4010 0.0000 0.0000 0.0000
# 2 33.6329 67.1590 27.4009 0.0000 0.0000 0.0000
# 3 27.4010 27.4009 132.7945 0.0000 0.0000 0.0000
# 4 0.0000 0.0000 0.0000 29.6464 0.0000 0.0000
# 5 0.0000 0.0000 0.0000 0.0000 29.6463 0.0000
# 6 0.0000 0.0000 0.0000 0.0000 0.0000 14.3978
#
#
#
# Elastic Compliance Matrix: (Units=1/GPa)
#
#
# Indices 1 2 3 4 5 6 
#
# 1 0.020502 -0.009326 -0.002306 0.000000 0.000000 0.000000
# 2 -0.009326 0.020501 -0.002306 0.000000 0.000000 0.000000
# 3 -0.002306 -0.002306 0.008482 0.000000 0.000000 0.000000
# 4 0.000000 0.000000 0.000000 0.033731 0.000000 0.000000
# 5 0.000000 0.000000 0.000000 0.000000 0.033731 0.000000
# 6 0.000000 0.000000 0.000000 0.000000 0.000000 0.069455
#
#
# Mechanical properties :
#
#
# Convention : Reuss Voigt Hill
#
# Bulk Modulus (GPa) = 46.27734 49.33128 47.80431
# Shear Modulus (GPa) = 22.57528 26.64990 24.61259
#
# Velocity S-wave (km/s) = 3.42611 3.72248 3.57737
# Velocity P-wave (km/s) = 6.30185 6.64275 6.47455
#
# Compressibility (1/GPa) = 0.02160885
#
# Stress axis : x y z
#
# Youngs Moduli (GPa) = 48.77659 48.77716 117.89616
#
# Poissons Ratio (x) = 0.45491 0.27186
# Poissons Ratio (y) = 0.45491 0.27185
# Poissons Ratio (z) = 0.11248 0.11247
#
# Static dielectric constant tensor:
#      x y z
#    x 1.708380 0.000000 0.000000 
#    y 0.000000 1.708380 0.000000 
#    z 0.000000 0.000000 1.748690 
# 
# From -- ./inp_files/10472.got.cif
#   From: 2010.05.17/outbox.cif.g08.bks.cpg/sg142_6_cif.got.tgz:10472.got - 2010.05.20 13:39:18.
