data_PCOD9573329
_publ_section_title
;
Structure prediction by ZEFSAII (Michael W. Deem and Ramdas Pophale) SiO2 
 PCOD9573329
Probable space group: I 41/A M D
;
_chemical_formula_sum "Si O2"
_cell_formula_units_Z 100
_cell_length_a 28.734377
_cell_length_b 28.734377
_cell_length_c 5.048987
_cell_angle_alpha 90.000000
_cell_angle_beta 90.000000
_cell_angle_gamma 90.000000
_cell_volume 4168.768931
_symmetry_space_group_name_H-M "I 41/A M D"
_symmetry_group_IT_number 141
_space_group.IT_coordinate_system_code '2'
_symmetry_cell_setting 'tetragonal'
loop_
_space_group_symop_operation_xyz
x,y,z
1/4-y,3/4+x,1/4+z
-x,1/2-y,z
1/4+y,1/4-x,3/4+z
x,-y,-z
-x,1/2+y,-z
1/4+y,3/4+x,1/4-z
1/4-y,1/4-x,3/4-z
-x,-y,-z
3/4+y,1/4-x,3/4-z
x,1/2+y,-z
3/4-y,3/4+x,1/4-z
-x,y,z
x,1/2-y,z
3/4-y,1/4-x,3/4+z
3/4+y,3/4+x,1/4+z
1/2+x,1/2+y,1/2+z
3/4-y,1/4+x,3/4+z
1/2-x,-y,1/2+z
3/4+y,3/4-x,1/4+z
1/2+x,1/2-y,1/2-z
1/2-x,y,1/2-z
3/4+y,1/4+x,3/4-z
3/4-y,3/4-x,1/4-z
1/2-x,1/2-y,1/2-z
1/4+y,3/4-x,1/4-z
1/2+x,y,1/2-z
1/4-y,1/4+x,3/4-z
1/2-x,1/2+y,1/2+z
1/2+x,-y,1/2+z
1/4-y,3/4-x,1/4+z
1/4+y,1/4+x,3/4+z
loop_
_atom_site_type_symbol
_atom_site_label
_atom_site_fract_x
_atom_site_fract_y
_atom_site_fract_z
Si Si1 0.700969 0.250000 0.067800
Si Si2 0.874838 0.000000 0.500000
Si Si3 0.000000 0.750000 0.625000
Si Si4 0.601561 0.351561 0.625000
Si Si5 0.250000 0.674910 0.250000
Si Si6 0.603079 0.250000 0.865190
Si Si7 0.649795 0.100206 0.125000
O O1 0.750000 0.250000 0.250000
O O2 0.710808 0.205530 0.888449
O O3 0.644556 0.250000 0.094041
O O4 0.854103 0.044442 0.354266
O O5 0.900328 0.022817 0.750278
O O6 0.950039 0.750000 0.473761
O O7 0.608415 0.296872 0.691820
O O8 0.628827 0.372051 0.372434
#
# Coordination Sequence:
#
# PCOD9573329 Si02
#       7
#    16  16   4  16  16  16  16
#     4  11  23  44  75 111 146 197 248 336 401 455
#     4  12  24  47  69 106 153 194 257 313 383 480
#     4  12  28  54  80 110 168 222 268 330 384 498
#     4  12  28  49  79 112 152 213 261 324 391 469
#     4  11  24  42  71 108 153 182 245 330 399 453
#     4  12  26  51  74 114 156 211 273 320 391 493
#     4  12  27  48  77 113 150 210 255 330 399 462
#
# _framework density 23.987898000000001
#
# number of rings (size 3 to 8) (size 9 to 14) (size 15 to 20)
#    0.000    0.320    1.600    7.680    0.000    1.280 
#   17.280    4.800    0.000    0.000    0.000    0.000 
#    0.000    0.000    0.000    0.000    0.000    0.000 
#
# Total GULP energy -278603.706967 kJ/mol
# GULP energy per Si atom -5572.074139 kJ/mol
# Density = 2.393330 g / cm^3
# Si number density = 23.987898 Si / 1000 Ang^3
#
#
#
# Elastic Constant Matrix: (Units=GPa)
#
#
# Indices 1 2 3 4 5 6 
#
# 1 183.2262 53.6225 54.5679 0.0000 0.0000 0.0000
# 2 53.6225 183.2214 54.5663 0.0000 0.0000 0.0000
# 3 54.5679 54.5663 152.3314 0.0000 0.0000 0.0000
# 4 0.0000 0.0000 0.0000 11.4283 0.0000 0.0000
# 5 0.0000 0.0000 0.0000 0.0000 11.4265 0.0000
# 6 0.0000 0.0000 0.0000 0.0000 0.0000 -44.2804
#
#
#
# Elastic Compliance Matrix: (Units=1/GPa)
#
#
# Indices 1 2 3 4 5 6 
#
# 1 0.006386 -0.001330 -0.001811 0.000000 0.000000 0.000000
# 2 -0.001330 0.006386 -0.001811 0.000000 0.000000 0.000000
# 3 -0.001811 -0.001811 0.007862 0.000000 0.000000 0.000000
# 4 0.000000 0.000000 0.000000 0.087502 0.000000 0.000000
# 5 0.000000 0.000000 0.000000 0.000000 0.087516 0.000000
# 6 0.000000 0.000000 0.000000 0.000000 0.000000 -0.022583
#
#
# Mechanical properties :
#
#
# Convention : Reuss Voigt Hill
#
# Bulk Modulus (GPa) = 93.19369 93.81028 93.50198
# Shear Modulus (GPa) = 26.80231 19.44971 23.12601
#
# Velocity S-wave (km/s) = 3.34627 2.85057 3.10832
# Velocity P-wave (km/s) = 7.33925 7.07294 7.20733
#
# Compressibility (1/GPa) = 0.01073034
#
# Stress axis : x y z
#
# Youngs Moduli (GPa) = 156.58462 156.58113 127.18795
#
# Poissons Ratio (x) = 0.20819 0.23039
# Poissons Ratio (y) = 0.20819 0.23039
# Poissons Ratio (z) = 0.28364 0.28363
#
# Static dielectric constant tensor:
#      x y z
#    x 2.062020 0.000000 0.000000 
#    y 0.000000 2.062040 0.000000 
#    z 0.000000 0.000000 1.887510 
# 
# From -- ./inp_files/1275.got.cif
#   From: 2010.05.17/outbox.cif.g08.bks.cpg/sg141_1_cif.got.tgz:1275.got - 2010.05.20 13:30:51.
