data_PCOD9573196
_publ_section_title
;
Structure prediction by ZEFSAII (Michael W. Deem and Ramdas Pophale) SiO2 
 PCOD9573196
Probable space group: I 41/A M D
;
_chemical_formula_sum "Si O2"
_cell_formula_units_Z 120
_cell_length_a 21.795819
_cell_length_b 21.795819
_cell_length_c 14.457840
_cell_angle_alpha 90.000000
_cell_angle_beta 90.000000
_cell_angle_gamma 90.000000
_cell_volume 6868.308592
_symmetry_space_group_name_H-M "I 41/A M D"
_symmetry_group_IT_number 141
_space_group.IT_coordinate_system_code '2'
_symmetry_cell_setting 'tetragonal'
loop_
_space_group_symop_operation_xyz
x,y,z
1/4-y,3/4+x,1/4+z
-x,1/2-y,z
1/4+y,1/4-x,3/4+z
x,-y,-z
-x,1/2+y,-z
1/4+y,3/4+x,1/4-z
1/4-y,1/4-x,3/4-z
-x,-y,-z
3/4+y,1/4-x,3/4-z
x,1/2+y,-z
3/4-y,3/4+x,1/4-z
-x,y,z
x,1/2-y,z
3/4-y,1/4-x,3/4+z
3/4+y,3/4+x,1/4+z
1/2+x,1/2+y,1/2+z
3/4-y,1/4+x,3/4+z
1/2-x,-y,1/2+z
3/4+y,3/4-x,1/4+z
1/2+x,1/2-y,1/2-z
1/2-x,y,1/2-z
3/4+y,1/4+x,3/4-z
3/4-y,3/4-x,1/4-z
1/2-x,1/2-y,1/2-z
1/4+y,3/4-x,1/4-z
1/2+x,y,1/2-z
1/4-y,1/4+x,3/4-z
1/2-x,1/2+y,1/2+z
1/2+x,-y,1/2+z
1/4-y,3/4-x,1/4+z
1/4+y,1/4+x,3/4+z
loop_
_atom_site_type_symbol
_atom_site_label
_atom_site_fract_x
_atom_site_fract_y
_atom_site_fract_z
Si Si1 0.000000 0.750000 0.270625
Si Si2 0.103095 0.643627 0.268956
Si Si3 0.291901 0.180144 0.626731
Si Si4 0.680342 0.090801 0.920953
Si Si5 0.198053 0.948053 0.625000
O O1 0.053732 0.696989 0.268004
O O2 0.076244 0.587135 0.210647
O O3 0.164837 0.664345 0.214165
O O4 0.122842 0.621717 0.370346
O O5 0.268834 0.250000 0.634198
O O6 0.239034 0.130562 0.610243
O O7 0.687784 0.021025 0.885587
O O8 0.676756 0.085552 0.031655
#
# Coordination Sequence:
#
# PCOD9573196 Si02
#       5
#     8  32  32  32  16
#     4  12  24  41  58  87 122 180 202 241 290 363
#     4  11  23  37  58  85 128 163 207 237 297 368
#     4  11  22  35  57  90 126 161 196 246 297 368
#     4  11  22  39  61  94 120 161 195 256 309 370
#     4  10  22  40  66  87 124 151 200 252 324 364
#
# _framework density 17.471551000000002
#
# number of rings (size 3 to 8) (size 9 to 14) (size 15 to 20)
#    0.000    1.067    5.333    2.400    5.600    3.200 
#    0.000    0.000    2.933    4.000    0.000    0.000 
#    0.000    0.000    0.000    0.000    0.000    0.000 
#
# Total GULP energy -334102.988050 kJ/mol
# GULP energy per Si atom -5568.383134 kJ/mol
# Density = 1.743179 g / cm^3
# Si number density = 17.471551 Si / 1000 Ang^3
#
#
#
# Elastic Constant Matrix: (Units=GPa)
#
#
# Indices 1 2 3 4 5 6 
#
# 1 72.8453 41.8250 48.1199 0.0000 0.0000 0.0000
# 2 41.8250 72.8453 48.1199 0.0000 0.0000 0.0000
# 3 48.1199 48.1199 133.6038 0.0000 0.0000 0.0000
# 4 0.0000 0.0000 0.0000 -1.5797 0.0000 0.0000
# 5 0.0000 0.0000 0.0000 0.0000 -1.5797 0.0000
# 6 0.0000 0.0000 0.0000 0.0000 0.0000 58.2939
#
#
#
# Elastic Compliance Matrix: (Units=1/GPa)
#
#
# Indices 1 2 3 4 5 6 
#
# 1 0.022368 -0.009869 -0.004502 0.000000 0.000000 0.000000
# 2 -0.009869 0.022368 -0.004502 0.000000 0.000000 0.000000
# 3 -0.004502 -0.004502 0.010728 0.000000 0.000000 0.000000
# 4 0.000000 0.000000 0.000000 -0.633036 0.000000 0.000000
# 5 0.000000 0.000000 0.000000 0.000000 -0.633036 0.000000
# 6 0.000000 0.000000 0.000000 0.000000 0.000000 0.017154
#
#
# Mechanical properties :
#
#
# Convention : Reuss Voigt Hill
#
# Bulk Modulus (GPa) = 56.43840 61.71379 59.07610
# Shear Modulus (GPa) = -4.34857 20.44221 8.04682
#
# Velocity S-wave (km/s) = -1.57935 3.42428 2.14841
# Velocity P-wave (km/s) = 5.38956 7.14376 6.32775
#
# Compressibility (1/GPa) = 0.01771843
#
# Stress axis : x y z
#
# Youngs Moduli (GPa) = 44.70695 44.70695 93.21788
#
# Poissons Ratio (x) = 0.44122 0.41964
# Poissons Ratio (y) = 0.44122 0.41964
# Poissons Ratio (z) = 0.20126 0.20126
#
# Static dielectric constant tensor:
#      x y z
#    x 1.583080 0.000000 0.000000 
#    y 0.000000 1.583080 0.000000 
#    z 0.000000 0.000000 1.621240 
# 
# From -- ./inp_files/6162.got.cif
#   From: 2010.05.17/outbox.cif.g08.bks.cpg/sg141_4_cif.got.tgz:6162.got - 2010.05.20 13:30:51.
