data_PCOD9573121
_publ_section_title
;
Structure prediction by ZEFSAII (Michael W. Deem and Ramdas Pophale) SiO2 
 PCOD9573121
Probable space group: I 41/A M D
;
_chemical_formula_sum "Si O2"
_cell_formula_units_Z 160
_cell_length_a 19.301360
_cell_length_b 19.301360
_cell_length_c 22.373379
_cell_angle_alpha 90.000000
_cell_angle_beta 90.000000
_cell_angle_gamma 90.000000
_cell_volume 8335.034498
_symmetry_space_group_name_H-M "I 41/A M D"
_symmetry_group_IT_number 141
_space_group.IT_coordinate_system_code '2'
_symmetry_cell_setting 'tetragonal'
loop_
_space_group_symop_operation_xyz
x,y,z
1/4-y,3/4+x,1/4+z
-x,1/2-y,z
1/4+y,1/4-x,3/4+z
x,-y,-z
-x,1/2+y,-z
1/4+y,3/4+x,1/4-z
1/4-y,1/4-x,3/4-z
-x,-y,-z
3/4+y,1/4-x,3/4-z
x,1/2+y,-z
3/4-y,3/4+x,1/4-z
-x,y,z
x,1/2-y,z
3/4-y,1/4-x,3/4+z
3/4+y,3/4+x,1/4+z
1/2+x,1/2+y,1/2+z
3/4-y,1/4+x,3/4+z
1/2-x,-y,1/2+z
3/4+y,3/4-x,1/4+z
1/2+x,1/2-y,1/2-z
1/2-x,y,1/2-z
3/4+y,1/4+x,3/4-z
3/4-y,3/4-x,1/4-z
1/2-x,1/2-y,1/2-z
1/4+y,3/4-x,1/4-z
1/2+x,y,1/2-z
1/4-y,1/4+x,3/4-z
1/2-x,1/2+y,1/2+z
1/2+x,-y,1/2+z
1/4-y,3/4-x,1/4+z
1/4+y,1/4+x,3/4+z
loop_
_atom_site_type_symbol
_atom_site_label
_atom_site_fract_x
_atom_site_fract_y
_atom_site_fract_z
Si Si1 0.079546 0.407626 0.823070
Si Si2 0.174557 0.911260 0.279465
Si Si3 0.419844 0.167594 0.237138
Si Si4 0.319865 0.827691 0.101888
Si Si5 0.316589 0.057492 0.053724
O O1 0.125636 0.375636 0.875000
O O2 0.114106 0.382460 0.761959
O O3 0.082826 0.491206 0.828133
O O4 0.000000 0.386992 0.828672
O O5 0.250000 0.897379 0.250000
O O6 0.171698 0.881762 0.345454
O O7 0.164320 0.993493 0.280653
O O8 0.500000 0.157787 0.216572
O O9 0.408031 0.250000 0.242481
O O10 0.413773 0.126638 0.300125
O O11 0.362435 0.128997 0.197658
O O12 0.327596 0.750000 0.126696
O O13 0.296947 0.046947 0.125000
O O14 0.332947 0.000000 0.000000
#
# Coordination Sequence:
#
# PCOD9573121 Si02
#       5
#    32  32  32  32  32
#     4  11  23  40  62  91 128 168 210 264 327 393
#     4  11  22  36  63  91 122 162 212 258 321 390
#     4  10  22  42  64  87 122 167 210 257 321 394
#     4  10  21  39  62  90 123 162 212 264 322 388
#     4  11  24  39  63  95 129 164 211 272 326 383
#
# _framework density 19.196082000000001
#
# number of rings (size 3 to 8) (size 9 to 14) (size 15 to 20)
#    0.000    1.400    4.000    1.200    2.800    3.400 
#    0.000    3.000    0.000    0.000    0.000    0.000 
#    0.000    0.000    0.000    0.000    0.000    0.000 
#
# Total GULP energy -445606.348112 kJ/mol
# GULP energy per Si atom -5570.079351 kJ/mol
# Density = 1.915239 g / cm^3
# Si number density = 19.196082 Si / 1000 Ang^3
#
#
#
# Elastic Constant Matrix: (Units=GPa)
#
#
# Indices 1 2 3 4 5 6 
#
# 1 59.7424 56.5904 25.8471 0.0000 0.0000 0.0000
# 2 56.5904 59.7424 25.8471 0.0000 0.0000 0.0000
# 3 25.8471 25.8471 65.8559 0.0000 0.0000 0.0000
# 4 0.0000 0.0000 0.0000 36.2053 0.0000 0.0000
# 5 0.0000 0.0000 0.0000 0.0000 36.2053 0.0000
# 6 0.0000 0.0000 0.0000 0.0000 0.0000 23.3901
#
#
#
# Elastic Compliance Matrix: (Units=1/GPa)
#
#
# Indices 1 2 3 4 5 6 
#
# 1 0.163835 -0.153423 -0.004086 0.000000 0.000000 0.000000
# 2 -0.153423 0.163835 -0.004086 0.000000 0.000000 0.000000
# 3 -0.004086 -0.004086 0.018392 0.000000 0.000000 0.000000
# 4 0.000000 0.000000 0.000000 0.027620 0.000000 0.000000
# 5 0.000000 0.000000 0.000000 0.000000 0.027620 0.000000
# 6 0.000000 0.000000 0.000000 0.000000 0.000000 0.042753
#
#
# Mechanical properties :
#
#
# Convention : Reuss Voigt Hill
#
# Bulk Modulus (GPa) = 43.72476 44.65667 44.19071
# Shear Modulus (GPa) = 6.45269 24.29721 15.37495
#
# Velocity S-wave (km/s) = 1.83542 3.56158 2.83316
# Velocity P-wave (km/s) = 5.22677 6.34248 5.81146
#
# Compressibility (1/GPa) = 0.02287034
#
# Stress axis : x y z
#
# Youngs Moduli (GPa) = 6.10371 6.10371 54.37034
#
# Poissons Ratio (x) = 0.93645 0.22218
# Poissons Ratio (y) = 0.93645 0.22218
# Poissons Ratio (z) = 0.02494 0.02494
#
# Static dielectric constant tensor:
#      x y z
#    x 1.667560 0.000000 0.000000 
#    y 0.000000 1.667560 0.000000 
#    z 0.000000 0.000000 1.679810 
# 
# From -- ./inp_files/8626.got.cif
#   From: 2010.05.17/outbox.cif.g08.bks.cpg/sg141_5_cif.got.tgz:8626.got - 2010.05.20 13:30:51.
