data_PCOD9573918
_publ_section_title
;
Structure prediction by ZEFSAII (Michael W. Deem and Ramdas Pophale) SiO2 
 PCOD9573918
Probable space group: I 41/A C D
;
_chemical_formula_sum "Si O2"
_cell_formula_units_Z 96
_cell_length_a 14.265654
_cell_length_b 14.265654
_cell_length_c 18.752198
_cell_angle_alpha 90.000000
_cell_angle_beta 90.000000
_cell_angle_gamma 90.000000
_cell_volume 3816.238888
_symmetry_space_group_name_H-M "I 41/A C D"
_symmetry_group_IT_number 142
_space_group.IT_coordinate_system_code '2'
_symmetry_cell_setting 'tetragonal'
loop_
_space_group_symop_operation_xyz
x,y,z
1/4-y,3/4+x,1/4+z
-x,1/2-y,z
1/4+y,1/4-x,3/4+z
x,-y,1/2-z
1/2-x,y,-z
3/4+y,1/4+x,1/4-z
1/4-y,1/4-x,1/4-z
-x,-y,-z
3/4+y,1/4-x,3/4-z
x,1/2+y,-z
3/4-y,3/4+x,1/4-z
-x,y,1/2+z
1/2+x,-y,z
1/4-y,3/4-x,3/4+z
3/4+y,3/4+x,3/4+z
1/2+x,1/2+y,1/2+z
3/4-y,1/4+x,3/4+z
1/2-x,-y,1/2+z
3/4+y,3/4-x,1/4+z
1/2+x,1/2-y,-z
-x,1/2+y,1/2-z
1/4+y,3/4+x,3/4-z
3/4-y,3/4-x,3/4-z
1/2-x,1/2-y,1/2-z
1/4+y,3/4-x,1/4-z
1/2+x,y,1/2-z
1/4-y,1/4+x,3/4-z
1/2-x,1/2+y,z
x,1/2-y,1/2+z
3/4-y,1/4-x,1/4+z
1/4+y,1/4+x,1/4+z
loop_
_atom_site_type_symbol
_atom_site_label
_atom_site_fract_x
_atom_site_fract_y
_atom_site_fract_z
Si Si1 0.090738 0.192528 0.528285
Si Si2 0.900629 0.929149 0.685630
Si Si3 0.965272 0.514754 0.907714
O O1 0.127037 0.253111 0.461485
O O2 0.174708 0.191177 0.585658
O O3 0.000000 0.250000 0.552550
O O4 0.050387 0.087576 0.527895
O O5 0.819211 0.856571 0.669726
O O6 0.930472 0.983620 0.614321
O O7 0.875625 0.000000 0.750000
#
# Coordination Sequence:
#
# PCOD9573918 Si02
#       3
#    32  32  32
#     4  10  23  46  68  99 143 183 230 293 356 416
#     4  10  24  43  69 108 135 189 244 285 355 423
#     4  10  22  43  68 100 141 179 231 294 346 420
#
# _framework density 25.155657999999999
#
# number of rings (size 3 to 8) (size 9 to 14) (size 15 to 20)
#    0.000    2.000    0.000    2.000    4.667    8.000 
#   24.000    0.000    0.000    0.000    0.000    0.000 
#    0.000    0.000    0.000    0.000    0.000    0.000 
#
# Total GULP energy -268244.000852 kJ/mol
# GULP energy per Si atom -5588.416684 kJ/mol
# Density = 2.509840 g / cm^3
# Si number density = 25.155658 Si / 1000 Ang^3
#
#
#
# Elastic Constant Matrix: (Units=GPa)
#
#
# Indices 1 2 3 4 5 6 
#
# 1 126.8240 101.1851 41.5007 0.0000 0.0000 0.0000
# 2 101.1851 126.8240 41.5007 0.0000 0.0000 0.0000
# 3 41.5007 41.5007 119.9558 0.0000 0.0000 0.0000
# 4 0.0000 0.0000 0.0000 13.5108 0.0000 0.0000
# 5 0.0000 0.0000 0.0000 0.0000 13.5108 0.0000
# 6 0.0000 0.0000 0.0000 0.0000 0.0000 52.3165
#
#
#
# Elastic Compliance Matrix: (Units=1/GPa)
#
#
# Indices 1 2 3 4 5 6 
#
# 1 0.022010 -0.016993 -0.001736 0.000000 0.000000 0.000000
# 2 -0.016993 0.022010 -0.001736 0.000000 0.000000 0.000000
# 3 -0.001736 -0.001736 0.009538 0.000000 0.000000 0.000000
# 4 0.000000 0.000000 0.000000 0.074015 0.000000 0.000000
# 5 0.000000 0.000000 0.000000 0.000000 0.074015 0.000000
# 6 0.000000 0.000000 0.000000 0.000000 0.000000 0.019114
#
#
# Mechanical properties :
#
#
# Convention : Reuss Voigt Hill
#
# Bulk Modulus (GPa) = 79.18179 82.44188 80.81184
# Shear Modulus (GPa) = 18.80821 28.49546 23.65183
#
# Velocity S-wave (km/s) = 2.73733 3.36931 3.06963
# Velocity P-wave (km/s) = 6.44482 6.92677 6.69014
#
# Compressibility (1/GPa) = 0.01262917
#
# Stress axis : x y z
#
# Youngs Moduli (GPa) = 45.43290 45.43290 104.84847
#
# Poissons Ratio (x) = 0.77203 0.18201
# Poissons Ratio (y) = 0.77203 0.18201
# Poissons Ratio (z) = 0.07887 0.07887
#
# Static dielectric constant tensor:
#      x y z
#    x 2.032120 0.000000 0.000000 
#    y 0.000000 2.032120 0.000000 
#    z 0.000000 0.000000 2.102690 
# 
# From -- ./inp_files/8388.got.cif
#   From: 2010.05.17/outbox.cif.g08.bks.cpg/sg142_5_cif.got.tgz:8388.got - 2010.05.20 13:39:18.
