data_PCOD9573292
_publ_section_title
;
Structure prediction by ZEFSAII (Michael W. Deem and Ramdas Pophale) SiO2 
 PCOD9573292
Probable space group: I 41/A M D
;
_chemical_formula_sum "Si O2"
_cell_formula_units_Z 176
_cell_length_a 18.554014
_cell_length_b 18.554014
_cell_length_c 27.437026
_cell_angle_alpha 90.000000
_cell_angle_beta 90.000000
_cell_angle_gamma 90.000000
_cell_volume 9445.235587
_symmetry_space_group_name_H-M "I 41/A M D"
_symmetry_group_IT_number 141
_space_group.IT_coordinate_system_code '2'
_symmetry_cell_setting 'tetragonal'
loop_
_space_group_symop_operation_xyz
x,y,z
1/4-y,3/4+x,1/4+z
-x,1/2-y,z
1/4+y,1/4-x,3/4+z
x,-y,-z
-x,1/2+y,-z
1/4+y,3/4+x,1/4-z
1/4-y,1/4-x,3/4-z
-x,-y,-z
3/4+y,1/4-x,3/4-z
x,1/2+y,-z
3/4-y,3/4+x,1/4-z
-x,y,z
x,1/2-y,z
3/4-y,1/4-x,3/4+z
3/4+y,3/4+x,1/4+z
1/2+x,1/2+y,1/2+z
3/4-y,1/4+x,3/4+z
1/2-x,-y,1/2+z
3/4+y,3/4-x,1/4+z
1/2+x,1/2-y,1/2-z
1/2-x,y,1/2-z
3/4+y,1/4+x,3/4-z
3/4-y,3/4-x,1/4-z
1/2-x,1/2-y,1/2-z
1/4+y,3/4-x,1/4-z
1/2+x,y,1/2-z
1/4-y,1/4+x,3/4-z
1/2-x,1/2+y,1/2+z
1/2+x,-y,1/2+z
1/4-y,3/4-x,1/4+z
1/4+y,1/4+x,3/4+z
loop_
_atom_site_type_symbol
_atom_site_label
_atom_site_fract_x
_atom_site_fract_y
_atom_site_fract_z
Si Si1 0.331717 0.663501 0.416272
Si Si2 0.672455 0.835823 0.602100
Si Si3 0.172808 0.058100 0.187635
Si Si4 0.343800 0.439226 0.198392
Si Si5 0.914429 0.164429 0.375000
Si Si6 0.919621 0.662609 0.988181
O O1 0.322164 0.750000 0.414254
O O2 0.386463 0.636463 0.375000
O O3 0.257327 0.620209 0.412941
O O4 0.366054 0.642677 0.468481
O O5 0.673118 0.750000 0.605905
O O6 0.662162 0.872210 0.654183
O O7 0.746221 0.862159 0.576709
O O8 0.610504 0.859177 0.564183
O O9 0.259119 0.046235 0.189026
O O10 0.146635 0.065038 0.243455
O O11 0.371072 0.367522 0.171157
O O12 0.902188 0.250000 0.380536
O O13 0.921763 0.750000 0.988484
O O14 0.000000 0.635478 0.997211
#
# Coordination Sequence:
#
# PCOD9573292 Si02
#       6
#    32  32  32  32  16  32
#     4  11  22  38  61  90 126 164 209 267 320 377
#     4  11  21  39  64  89 125 172 214 259 323 391
#     4  11  24  39  63  95 126 165 217 263 318 384
#     4  11  22  40  64  91 127 169 210 264 316 387
#     4  11  24  42  68 100 130 164 213 270 324 384
#     4   9  19  36  58  85 118 162 209 253 314 385
#
# _framework density 18.633732999999999
#
# number of rings (size 3 to 8) (size 9 to 14) (size 15 to 20)
#    0.000    1.364    3.636    2.182    0.000    3.091 
#    0.000    1.818    0.000    5.455    0.000    0.000 
#    0.000    0.000    0.000    0.000    0.000    0.000 
#
# Total GULP energy -491396.199917 kJ/mol
# GULP energy per Si atom -5584.047726 kJ/mol
# Density = 1.859132 g / cm^3
# Si number density = 18.633733 Si / 1000 Ang^3
#
#
#
# Elastic Constant Matrix: (Units=GPa)
#
#
# Indices 1 2 3 4 5 6 
#
# 1 87.6274 38.8610 33.0895 0.0000 0.0000 0.0000
# 2 38.8610 87.6274 33.0895 0.0000 0.0000 0.0000
# 3 33.0895 33.0895 98.2382 0.0000 0.0000 0.0000
# 4 0.0000 0.0000 0.0000 27.8331 0.0000 0.0000
# 5 0.0000 0.0000 0.0000 0.0000 27.8331 0.0000
# 6 0.0000 0.0000 0.0000 0.0000 0.0000 27.4006
#
#
#
# Elastic Compliance Matrix: (Units=1/GPa)
#
#
# Indices 1 2 3 4 5 6 
#
# 1 0.015052 -0.005454 -0.003233 0.000000 0.000000 0.000000
# 2 -0.005454 0.015052 -0.003233 0.000000 0.000000 0.000000
# 3 -0.003233 -0.003233 0.012357 0.000000 0.000000 0.000000
# 4 0.000000 0.000000 0.000000 0.035928 0.000000 0.000000
# 5 0.000000 0.000000 0.000000 0.000000 0.035928 0.000000
# 6 0.000000 0.000000 0.000000 0.000000 0.000000 0.036496
#
#
# Mechanical properties :
#
#
# Convention : Reuss Voigt Hill
#
# Bulk Modulus (GPa) = 53.70304 53.73035 53.71669
# Shear Modulus (GPa) = 27.64590 27.84356 27.74473
#
# Velocity S-wave (km/s) = 3.85599 3.86975 3.86288
# Velocity P-wave (km/s) = 6.97910 6.99030 6.98470
#
# Compressibility (1/GPa) = 0.01862092
#
# Stress axis : x y z
#
# Youngs Moduli (GPa) = 66.43840 66.43840 80.92567
#
# Poissons Ratio (x) = 0.36238 0.26160
# Poissons Ratio (y) = 0.36238 0.26160
# Poissons Ratio (z) = 0.21477 0.21477
#
# Static dielectric constant tensor:
#      x y z
#    x 1.638890 0.000000 0.000000 
#    y 0.000000 1.638890 0.000000 
#    z 0.000000 0.000000 1.646980 
# 
# From -- ./inp_files/12857.got.cif
#   From: 2010.05.17/outbox.cif.g08.bks.cpg/sg141_7_cif.got.tgz:12857.got - 2010.05.20 13:30:51.
