data_PCOD9573534
_publ_section_title
;
Structure prediction by ZEFSAII (Michael W. Deem and Ramdas Pophale) SiO2 
 PCOD9573534
Probable space group: I 41/A C D
;
_chemical_formula_sum "Si O2"
_cell_formula_units_Z 128
_cell_length_a 21.281134
_cell_length_b 21.281134
_cell_length_c 14.503532
_cell_angle_alpha 90.000000
_cell_angle_beta 90.000000
_cell_angle_gamma 90.000000
_cell_volume 6568.456228
_symmetry_space_group_name_H-M "I 41/A C D"
_symmetry_group_IT_number 142
_space_group.IT_coordinate_system_code '2'
_symmetry_cell_setting 'tetragonal'
loop_
_space_group_symop_operation_xyz
x,y,z
1/4-y,3/4+x,1/4+z
-x,1/2-y,z
1/4+y,1/4-x,3/4+z
x,-y,1/2-z
1/2-x,y,-z
3/4+y,1/4+x,1/4-z
1/4-y,1/4-x,1/4-z
-x,-y,-z
3/4+y,1/4-x,3/4-z
x,1/2+y,-z
3/4-y,3/4+x,1/4-z
-x,y,1/2+z
1/2+x,-y,z
1/4-y,3/4-x,3/4+z
3/4+y,3/4+x,3/4+z
1/2+x,1/2+y,1/2+z
3/4-y,1/4+x,3/4+z
1/2-x,-y,1/2+z
3/4+y,3/4-x,1/4+z
1/2+x,1/2-y,-z
-x,1/2+y,1/2-z
1/4+y,3/4+x,3/4-z
3/4-y,3/4-x,3/4-z
1/2-x,1/2-y,1/2-z
1/4+y,3/4-x,1/4-z
1/2+x,y,1/2-z
1/4-y,1/4+x,3/4-z
1/2-x,1/2+y,z
x,1/2-y,1/2+z
3/4-y,1/4-x,1/4+z
1/4+y,1/4+x,1/4+z
loop_
_atom_site_type_symbol
_atom_site_label
_atom_site_fract_x
_atom_site_fract_y
_atom_site_fract_z
Si Si1 0.596904 0.740529 0.912576
Si Si2 0.776316 0.871690 0.896681
Si Si3 0.959824 0.941637 0.531760
Si Si4 0.382456 0.237442 0.884012
O O1 0.556033 0.689971 0.856729
O O2 0.663118 0.751913 0.866868
O O3 0.606854 0.727854 0.019349
O O4 0.815282 0.934719 0.875000
O O5 0.720652 0.854449 0.823644
O O6 0.827189 0.814697 0.893377
O O7 0.750000 0.874524 0.000000
O O8 0.967621 0.890119 0.449678
O O9 0.000000 0.000000 0.500000
O O10 0.446359 0.196359 0.875000
#
# Coordination Sequence:
#
# PCOD9573534 Si02
#       4
#    32  32  32  32
#     4  11  22  36  58  90 129 167 203 252 320 397
#     4  10  20  36  65  86 112 157 207 261 312 375
#     4  10  21  35  57  88 117 157 212 253 311 371
#     4  10  19  36  59  87 122 157 200 252 308 375
#
# _framework density 19.487075999999998
#
# number of rings (size 3 to 8) (size 9 to 14) (size 15 to 20)
#    0.000    1.750    5.000    0.000    0.000    1.000 
#    0.000    0.000    5.500    0.000    0.000    0.000 
#    0.000    0.000    0.000    0.000    0.000    0.000 
#
# Total GULP energy -356585.468763 kJ/mol
# GULP energy per Si atom -5571.647949 kJ/mol
# Density = 1.944272 g / cm^3
# Si number density = 19.487076 Si / 1000 Ang^3
#
#
#
# Elastic Constant Matrix: (Units=GPa)
#
#
# Indices 1 2 3 4 5 6 
#
# 1 41.7843 87.4350 58.0142 0.0000 0.0000 0.0000
# 2 87.4350 41.7807 58.0149 0.0000 0.0000 0.0000
# 3 58.0142 58.0149 164.5211 0.0000 0.0000 0.0000
# 4 0.0000 0.0000 0.0000 25.9542 0.0000 0.0000
# 5 0.0000 0.0000 0.0000 0.0000 25.9533 0.0000
# 6 0.0000 0.0000 0.0000 0.0000 0.0000 5.2193
#
#
#
# Elastic Compliance Matrix: (Units=1/GPa)
#
#
# Indices 1 2 3 4 5 6 
#
# 1 -0.005289 0.016615 -0.003994 0.000000 0.000000 0.000000
# 2 0.016615 -0.005290 -0.003993 0.000000 0.000000 0.000000
# 3 -0.003994 -0.003993 0.008895 0.000000 0.000000 0.000000
# 4 0.000000 0.000000 0.000000 0.038529 0.000000 0.000000
# 5 0.000000 0.000000 0.000000 0.000000 0.038531 0.000000
# 6 0.000000 0.000000 0.000000 0.000000 0.000000 0.191598
#
#
# Mechanical properties :
#
#
# Convention : Reuss Voigt Hill
#
# Bulk Modulus (GPa) = 64.22428 72.77936 68.50182
# Shear Modulus (GPa) = 19.61499 14.40014 17.00757
#
# Velocity S-wave (km/s) = 3.17608 2.72133 2.95746
# Velocity P-wave (km/s) = 6.81754 6.87770 6.84769
#
# Compressibility (1/GPa) = 0.01557044
#
# Stress axis : x y z
#
# Youngs Moduli (GPa) = -189.05566 -189.01941 112.42770
#
# Poissons Ratio (x) = 3.14049 0.44899
# Poissons Ratio (y) = 3.14110 0.44894
# Poissons Ratio (z) = -0.75502 -0.75479
#
# Static dielectric constant tensor:
#      x y z
#    x 1.501460 0.000000 0.000000 
#    y 0.000000 1.501470 0.000000 
#    z 0.000000 0.000000 1.537600 
# 
# From -- ./inp_files/3459.got.cif
#   From: 2010.05.17/outbox.cif.g08.bks.cpg/sg142_2_cif.got.tgz:3459.got - 2010.05.20 13:39:18.
