data_PCOD9573812
_publ_section_title
;
Structure prediction by ZEFSAII (Michael W. Deem and Ramdas Pophale) SiO2 
 PCOD9573812
Probable space group: I 41/A C D
;
_chemical_formula_sum "Si O2"
_cell_formula_units_Z 96
_cell_length_a 23.861610
_cell_length_b 23.861610
_cell_length_c 7.869065
_cell_angle_alpha 90.000000
_cell_angle_beta 90.000000
_cell_angle_gamma 90.000000
_cell_volume 4480.460151
_symmetry_space_group_name_H-M "I 41/A C D"
_symmetry_group_IT_number 142
_space_group.IT_coordinate_system_code '2'
_symmetry_cell_setting 'tetragonal'
loop_
_space_group_symop_operation_xyz
x,y,z
1/4-y,3/4+x,1/4+z
-x,1/2-y,z
1/4+y,1/4-x,3/4+z
x,-y,1/2-z
1/2-x,y,-z
3/4+y,1/4+x,1/4-z
1/4-y,1/4-x,1/4-z
-x,-y,-z
3/4+y,1/4-x,3/4-z
x,1/2+y,-z
3/4-y,3/4+x,1/4-z
-x,y,1/2+z
1/2+x,-y,z
1/4-y,3/4-x,3/4+z
3/4+y,3/4+x,3/4+z
1/2+x,1/2+y,1/2+z
3/4-y,1/4+x,3/4+z
1/2-x,-y,1/2+z
3/4+y,3/4-x,1/4+z
1/2+x,1/2-y,-z
-x,1/2+y,1/2-z
1/4+y,3/4+x,3/4-z
3/4-y,3/4-x,3/4-z
1/2-x,1/2-y,1/2-z
1/4+y,3/4-x,1/4-z
1/2+x,y,1/2-z
1/4-y,1/4+x,3/4-z
1/2-x,1/2+y,z
x,1/2-y,1/2+z
3/4-y,1/4-x,1/4+z
1/4+y,1/4+x,1/4+z
loop_
_atom_site_type_symbol
_atom_site_label
_atom_site_fract_x
_atom_site_fract_y
_atom_site_fract_z
Si Si1 0.576320 0.938222 0.947587
Si Si2 0.325482 0.500000 0.750000
Si Si3 0.944272 0.320212 0.824530
Si Si4 0.976874 0.000000 0.750000
O O1 0.631892 0.964077 0.865758
O O2 0.580339 0.872181 0.925336
O O3 0.520305 0.958780 0.845991
O O4 0.562795 0.963168 0.130740
O O5 0.287773 0.537773 0.625000
O O6 0.928622 0.321379 0.625000
O O7 0.926988 0.261426 0.906513
#
# Coordination Sequence:
#
# PCOD9573812 Si02
#       4
#    32  16  32  16
#     4  10  21  41  65  91 131 171 211 271 326 375
#     4  11  26  47  66  90 124 167 226 281 326 380
#     4  11  22  37  59  94 134 170 212 258 321 401
#     4   9  20  37  64 100 124 165 228 259 312 404
#
# _framework density 21.426369999999999
#
# number of rings (size 3 to 8) (size 9 to 14) (size 15 to 20)
#    0.000    1.667    0.000    5.000    0.000    6.667 
#    0.000    6.667    0.000    0.000    0.000    0.000 
#    0.000    0.000    0.000    0.000    0.000    0.000 
#
# Total GULP energy -268522.555297 kJ/mol
# GULP energy per Si atom -5594.219902 kJ/mol
# Density = 2.137760 g / cm^3
# Si number density = 21.426370 Si / 1000 Ang^3
#
#
#
# Elastic Constant Matrix: (Units=GPa)
#
#
# Indices 1 2 3 4 5 6 
#
# 1 138.2040 79.3242 64.2646 0.0000 0.0000 0.0000
# 2 79.3242 138.2035 64.2645 0.0000 0.0000 0.0000
# 3 64.2646 64.2645 143.8114 0.0000 0.0000 0.0000
# 4 0.0000 0.0000 0.0000 2.2139 0.0000 0.0000
# 5 0.0000 0.0000 0.0000 0.0000 2.2106 0.0000
# 6 0.0000 0.0000 0.0000 0.0000 0.0000 -4.4081
#
#
#
# Elastic Compliance Matrix: (Units=1/GPa)
#
#
# Indices 1 2 3 4 5 6 
#
# 1 0.011615 -0.005369 -0.002791 0.000000 0.000000 0.000000
# 2 -0.005369 0.011615 -0.002791 0.000000 0.000000 0.000000
# 3 -0.002791 -0.002791 0.009448 0.000000 0.000000 0.000000
# 4 0.000000 0.000000 0.000000 0.451681 0.000000 0.000000
# 5 0.000000 0.000000 0.000000 0.000000 0.452376 0.000000
# 6 0.000000 0.000000 0.000000 0.000000 0.000000 -0.226854
#
#
# Mechanical properties :
#
#
# Convention : Reuss Voigt Hill
#
# Bulk Modulus (GPa) = 92.80059 92.88062 92.84061
# Shear Modulus (GPa) = 6.79924 14.16098 10.48011
#
# Velocity S-wave (km/s) = 1.78331 2.57361 2.21401
# Velocity P-wave (km/s) = 6.90258 7.23009 7.06823
#
# Compressibility (1/GPa) = 0.01077579
#
# Stress axis : x y z
#
# Youngs Moduli (GPa) = 86.09494 86.09462 105.83990
#
# Poissons Ratio (x) = 0.46222 0.29543
# Poissons Ratio (y) = 0.46222 0.29543
# Poissons Ratio (z) = 0.24032 0.24032
#
# Static dielectric constant tensor:
#      x y z
#    x 1.754610 0.000000 0.000000 
#    y 0.000000 1.754610 0.000000 
#    z 0.000000 0.000000 1.788720 
# 
# From -- ./inp_files/1683.got.cif
#   From: 2010.05.17/outbox.cif.g08.bks.cpg/sg142_1_cif.got.tgz:1683.got - 2010.05.20 13:39:18.
