data_PCOD9573394
_publ_section_title
;
Structure prediction by ZEFSAII (Michael W. Deem and Ramdas Pophale) SiO2 
 PCOD9573394
Probable space group: I 41/A M D
;
_chemical_formula_sum "Si O2"
_cell_formula_units_Z 64
_cell_length_a 24.000000
_cell_length_b 24.000000
_cell_length_c 12.000000
_cell_angle_alpha 90.000000
_cell_angle_beta 90.000000
_cell_angle_gamma 90.000000
_cell_volume 6912.000000
_symmetry_space_group_name_H-M "I 41/A M D"
_symmetry_group_IT_number 141
_space_group.IT_coordinate_system_code '2'
_symmetry_cell_setting 'tetragonal'
loop_
_space_group_symop_operation_xyz
x,y,z
1/4-y,3/4+x,1/4+z
-x,1/2-y,z
1/4+y,1/4-x,3/4+z
x,-y,-z
-x,1/2+y,-z
1/4+y,3/4+x,1/4-z
1/4-y,1/4-x,3/4-z
-x,-y,-z
3/4+y,1/4-x,3/4-z
x,1/2+y,-z
3/4-y,3/4+x,1/4-z
-x,y,z
x,1/2-y,z
3/4-y,1/4-x,3/4+z
3/4+y,3/4+x,1/4+z
1/2+x,1/2+y,1/2+z
3/4-y,1/4+x,3/4+z
1/2-x,-y,1/2+z
3/4+y,3/4-x,1/4+z
1/2+x,1/2-y,1/2-z
1/2-x,y,1/2-z
3/4+y,1/4+x,3/4-z
3/4-y,3/4-x,1/4-z
1/2-x,1/2-y,1/2-z
1/4+y,3/4-x,1/4-z
1/2+x,y,1/2-z
1/4-y,1/4+x,3/4-z
1/2-x,1/2+y,1/2+z
1/2+x,-y,1/2+z
1/4-y,3/4-x,1/4+z
1/4+y,1/4+x,3/4+z
loop_
_atom_site_type_symbol
_atom_site_label
_atom_site_fract_x
_atom_site_fract_y
_atom_site_fract_z
Si Si1 0.433101 0.688746 0.747781
Si Si2 0.820595 0.817359 0.418609
Si Si3 0.634467 0.481363 0.126554
Si Si4 0.188282 0.584296 0.250645
O O1 0.500000 0.693684 0.743026
O O2 0.409143 0.750000 0.723738
O O3 0.418887 0.636690 0.673501
O O4 0.421770 0.671770 0.875000
O O5 0.812925 0.750000 0.406160
O O6 0.793699 0.838876 0.535648
O O7 0.803223 0.857299 0.316510
O O8 0.685315 0.435315 0.125000
O O9 0.653063 0.539697 0.180653
O O10 0.617999 0.500000 0.000000
O O11 0.250000 0.558709 0.250000
O O12 0.164073 0.585928 0.125000
#
# Coordination Sequence:
#
# PCOD9573394 Si02
#       4
#    32  32  32  32
#     4   8  15  31  55  81 113 156 198 236 290 363
#     4  11  24  39  60  93 134 167 203 262 325 386
#     4  12  22  39  68  96 120 156 214 273 323 383
#     4  12  23  42  65  90 118 166 220 259 317 386
#
# _framework density 9.2592590000000001
#
# number of rings (size 3 to 8) (size 9 to 14) (size 15 to 20)
#    0.000    1.250    5.000    3.000    0.000    1.000 
#    0.000    2.500    0.000    0.000    0.000    0.000 
#    0.000    0.000    0.000    0.000    0.000    0.000 
#
# Total GULP energy -356371.506784 kJ/mol
# GULP energy per Si atom -5568.304794 kJ/mol
# Density = 0.923818 g / cm^3
# Si number density = 9.259259 Si / 1000 Ang^3
#
#
#
# Elastic Constant Matrix: (Units=GPa)
#
#
# Indices 1 2 3 4 5 6 
#
# 1 90.6867 11.7586 39.8451 0.0000 0.0000 0.0000
# 2 11.7586 90.6866 39.8449 0.0000 0.0000 0.0000
# 3 39.8451 39.8449 138.5918 0.0000 0.0000 0.0000
# 4 0.0000 0.0000 0.0000 39.8744 0.0000 0.0000
# 5 0.0000 0.0000 0.0000 0.0000 39.8746 0.0000
# 6 0.0000 0.0000 0.0000 0.0000 0.0000 25.3819
#
#
#
# Elastic Compliance Matrix: (Units=1/GPa)
#
#
# Indices 1 2 3 4 5 6 
#
# 1 0.012621 -0.000048 -0.003615 0.000000 0.000000 0.000000
# 2 -0.000048 0.012621 -0.003615 0.000000 0.000000 0.000000
# 3 -0.003615 -0.003615 0.009294 0.000000 0.000000 0.000000
# 4 0.000000 0.000000 0.000000 0.025079 0.000000 0.000000
# 5 0.000000 0.000000 0.000000 0.000000 0.025079 0.000000
# 6 0.000000 0.000000 0.000000 0.000000 0.000000 0.039398
#
#
# Mechanical properties :
#
#
# Convention : Reuss Voigt Hill
#
# Bulk Modulus (GPa) = 50.04709 55.87355 52.96032
# Shear Modulus (GPa) = 34.40954 36.26061 35.33508
#
# Velocity S-wave (km/s) = 4.31526 4.42981 4.37291
# Velocity P-wave (km/s) = 7.20505 7.51010 7.35915
#
# Compressibility (1/GPa) = 0.01998118
#
# Stress axis : x y z
#
# Youngs Moduli (GPa) = 79.23006 79.23008 107.59722
#
# Poissons Ratio (x) = 0.00383 0.38894
# Poissons Ratio (y) = 0.00383 0.38894
# Poissons Ratio (z) = 0.28640 0.28640
#
# Static dielectric constant tensor:
#      x y z
#    x 1.634610 0.000000 0.000000 
#    y 0.000000 1.634610 0.000000 
#    z 0.000000 0.000000 1.668220 
# 
# From -- ./inp_files/4554.got.cif
#   From: 2010.05.17/outbox.ucp.g08.bks.cvg/sg141_3_cif.got.tgz:4554.got - 2010.06.11 11:43:24.
