data_PCOD9573880
_publ_section_title
;
Structure prediction by ZEFSAII (Michael W. Deem and Ramdas Pophale) SiO2 
 PCOD9573880
Probable space group: I 41/A C D
;
_chemical_formula_sum "Si O2"
_cell_formula_units_Z 144
_cell_length_a 20.603309
_cell_length_b 20.603309
_cell_length_c 17.730656
_cell_angle_alpha 90.000000
_cell_angle_beta 90.000000
_cell_angle_gamma 90.000000
_cell_volume 7526.598609
_symmetry_space_group_name_H-M "I 41/A C D"
_symmetry_group_IT_number 142
_space_group.IT_coordinate_system_code '2'
_symmetry_cell_setting 'tetragonal'
loop_
_space_group_symop_operation_xyz
x,y,z
1/4-y,3/4+x,1/4+z
-x,1/2-y,z
1/4+y,1/4-x,3/4+z
x,-y,1/2-z
1/2-x,y,-z
3/4+y,1/4+x,1/4-z
1/4-y,1/4-x,1/4-z
-x,-y,-z
3/4+y,1/4-x,3/4-z
x,1/2+y,-z
3/4-y,3/4+x,1/4-z
-x,y,1/2+z
1/2+x,-y,z
1/4-y,3/4-x,3/4+z
3/4+y,3/4+x,3/4+z
1/2+x,1/2+y,1/2+z
3/4-y,1/4+x,3/4+z
1/2-x,-y,1/2+z
3/4+y,3/4-x,1/4+z
1/2+x,1/2-y,-z
-x,1/2+y,1/2-z
1/4+y,3/4+x,3/4-z
3/4-y,3/4-x,3/4-z
1/2-x,1/2-y,1/2-z
1/4+y,3/4-x,1/4-z
1/2+x,y,1/2-z
1/4-y,1/4+x,3/4-z
1/2-x,1/2+y,z
x,1/2-y,1/2+z
3/4-y,1/4-x,1/4+z
1/4+y,1/4+x,1/4+z
loop_
_atom_site_type_symbol
_atom_site_label
_atom_site_fract_x
_atom_site_fract_y
_atom_site_fract_z
Si Si1 0.250000 0.027504 0.000000
Si Si2 0.943935 0.070123 0.292337
Si Si3 0.002235 0.354686 0.151913
Si Si4 0.159951 0.445700 0.891230
Si Si5 0.021906 0.004425 0.085122
O O1 0.298084 0.069645 0.053210
O O2 0.212930 0.981239 0.057446
O O3 0.982054 0.121065 0.238055
O O4 0.876168 0.097083 0.324675
O O5 0.932495 0.000000 0.250000
O O6 0.985599 0.048379 0.363789
O O7 0.065731 0.315731 0.125000
O O8 0.942406 0.307595 0.125000
O O9 0.993375 0.423111 0.111471
O O10 0.096471 0.488227 0.903078
O O11 0.000000 0.000000 0.000000
#
# Coordination Sequence:
#
# PCOD9573880 Si02
#       5
#    16  32  32  32  32
#     4  10  24  36  62  98 130 176 204 288 342 404
#     4  10  22  41  63  90 128 175 221 271 335 414
#     4  10  23  42  65  90 127 177 225 273 334 402
#     4  11  22  40  63  94 134 168 223 271 346 399
#     4  11  24  39  65  96 125 172 219 277 336 405
#
# _framework density 19.132148999999998
#
# number of rings (size 3 to 8) (size 9 to 14) (size 15 to 20)
#    0.000    1.556    1.111    2.667    7.778    3.556 
#    0.000    0.000    0.000    2.667    0.000    0.000 
#    0.000    0.000    0.000    0.000    0.000    0.000 
#
# Total GULP energy -401331.933130 kJ/mol
# GULP energy per Si atom -5574.054627 kJ/mol
# Density = 1.908860 g / cm^3
# Si number density = 19.132149 Si / 1000 Ang^3
#
#
#
# Elastic Constant Matrix: (Units=GPa)
#
#
# Indices 1 2 3 4 5 6 
#
# 1 98.2276 43.6638 50.9075 0.0000 0.0000 0.0000
# 2 43.6638 98.2277 50.9076 0.0000 0.0000 0.0000
# 3 50.9075 50.9076 156.0723 0.0000 0.0000 0.0000
# 4 0.0000 0.0000 0.0000 36.5305 0.0000 0.0000
# 5 0.0000 0.0000 0.0000 0.0000 36.5303 0.0000
# 6 0.0000 0.0000 0.0000 0.0000 0.0000 31.8822
#
#
#
# Elastic Compliance Matrix: (Units=1/GPa)
#
#
# Indices 1 2 3 4 5 6 
#
# 1 0.013764 -0.004563 -0.003001 0.000000 0.000000 0.000000
# 2 -0.004563 0.013764 -0.003001 0.000000 0.000000 0.000000
# 3 -0.003001 -0.003001 0.008365 0.000000 0.000000 0.000000
# 4 0.000000 0.000000 0.000000 0.027374 0.000000 0.000000
# 5 0.000000 0.000000 0.000000 0.000000 0.027375 0.000000
# 6 0.000000 0.000000 0.000000 0.000000 0.000000 0.031365
#
#
# Mechanical properties :
#
#
# Convention : Reuss Voigt Hill
#
# Bulk Modulus (GPa) = 67.73871 71.49838 69.61854
# Shear Modulus (GPa) = 33.77015 34.79183 34.28099
#
# Velocity S-wave (km/s) = 4.20587 4.26902 4.23756
# Velocity P-wave (km/s) = 7.68559 7.85820 7.77237
#
# Compressibility (1/GPa) = 0.01476261
#
# Stress axis : x y z
#
# Youngs Moduli (GPa) = 72.65230 72.65234 119.54323
#
# Poissons Ratio (x) = 0.33151 0.35878
# Poissons Ratio (y) = 0.33151 0.35878
# Poissons Ratio (z) = 0.21805 0.21805
#
# Static dielectric constant tensor:
#      x y z
#    x 1.695460 0.000000 0.000000 
#    y 0.000000 1.695450 0.000000 
#    z 0.000000 0.000000 1.664380 
# 
# From -- ./inp_files/7285.got.cif
#   From: 2010.05.17/outbox.cif.g08.bks.cpg/sg142_4_cif.got.tgz:7285.got - 2010.05.20 13:39:18.
