data_PCOD9573035
_publ_section_title
;
Structure prediction by ZEFSAII (Michael W. Deem and Ramdas Pophale) SiO2 
 PCOD9573035
Probable space group: I 41/A M D
;
_chemical_formula_sum "Si O2"
_cell_formula_units_Z 160
_cell_length_a 20.918288
_cell_length_b 20.918288
_cell_length_c 17.980402
_cell_angle_alpha 90.000000
_cell_angle_beta 90.000000
_cell_angle_gamma 90.000000
_cell_volume 7867.770321
_symmetry_space_group_name_H-M "I 41/A M D"
_symmetry_group_IT_number 141
_space_group.IT_coordinate_system_code '2'
_symmetry_cell_setting 'tetragonal'
loop_
_space_group_symop_operation_xyz
x,y,z
1/4-y,3/4+x,1/4+z
-x,1/2-y,z
1/4+y,1/4-x,3/4+z
x,-y,-z
-x,1/2+y,-z
1/4+y,3/4+x,1/4-z
1/4-y,1/4-x,3/4-z
-x,-y,-z
3/4+y,1/4-x,3/4-z
x,1/2+y,-z
3/4-y,3/4+x,1/4-z
-x,y,z
x,1/2-y,z
3/4-y,1/4-x,3/4+z
3/4+y,3/4+x,1/4+z
1/2+x,1/2+y,1/2+z
3/4-y,1/4+x,3/4+z
1/2-x,-y,1/2+z
3/4+y,3/4-x,1/4+z
1/2+x,1/2-y,1/2-z
1/2-x,y,1/2-z
3/4+y,1/4+x,3/4-z
3/4-y,3/4-x,1/4-z
1/2-x,1/2-y,1/2-z
1/4+y,3/4-x,1/4-z
1/2+x,y,1/2-z
1/4-y,1/4+x,3/4-z
1/2-x,1/2+y,1/2+z
1/2+x,-y,1/2+z
1/4-y,3/4-x,1/4+z
1/4+y,1/4+x,3/4+z
loop_
_atom_site_type_symbol
_atom_site_label
_atom_site_fract_x
_atom_site_fract_y
_atom_site_fract_z
Si Si1 0.926113 0.569303 0.299661
Si Si2 0.577848 0.431634 0.265566
Si Si3 0.616640 0.179898 0.692826
Si Si4 0.744713 0.325363 0.832939
Si Si5 0.177077 0.175828 0.227937
O O1 0.906580 0.496859 0.279049
O O2 0.891841 0.626449 0.255455
O O3 0.924149 0.577020 0.388225
O O4 0.000000 0.574198 0.275362
O O5 0.500000 0.420758 0.261400
O O6 0.596877 0.449745 0.350891
O O7 0.622214 0.372124 0.242692
O O8 0.619180 0.250000 0.728836
O O9 0.568301 0.181700 0.625000
O O10 0.681519 0.169266 0.645131
O O11 0.731134 0.250000 0.825310
O O12 0.750000 0.353764 0.750000
O O13 0.167431 0.250000 0.251972
O O14 0.250000 0.157830 0.250000
#
# Coordination Sequence:
#
# PCOD9573035 Si02
#       5
#    32  32  32  32  32
#     4  10  21  38  58  84 121 161 199 249 307 356
#     4  10  20  38  62  87 118 156 198 244 297 359
#     4  11  20  32  52  85 128 171 213 246 284 351
#     4   9  17  30  50  77 114 158 200 243 287 332
#     4  10  23  43  65  88 116 149 191 250 318 373
#
# _framework density 20.336130000000001
#
# number of rings (size 3 to 8) (size 9 to 14) (size 15 to 20)
#    0.000    2.000    2.000    1.800    0.000    5.000 
#    0.000    7.000    0.000    0.000    0.000    5.600 
#    0.000    0.000    0.000    0.000    0.000    0.000 
#
# Total GULP energy -445375.248303 kJ/mol
# GULP energy per Si atom -5567.190604 kJ/mol
# Density = 2.028984 g / cm^3
# Si number density = 20.336130 Si / 1000 Ang^3
#
#
#
# Elastic Constant Matrix: (Units=GPa)
#
#
# Indices 1 2 3 4 5 6 
#
# 1 110.1686 70.5748 3.2537 0.0000 0.0000 0.0000
# 2 70.5748 110.1676 3.2519 0.0000 0.0000 0.0000
# 3 3.2537 3.2519 17.1604 0.0000 0.0000 0.0000
# 4 0.0000 0.0000 0.0000 20.8647 0.0000 0.0000
# 5 0.0000 0.0000 0.0000 0.0000 20.8648 0.0000
# 6 0.0000 0.0000 0.0000 0.0000 0.0000 28.0157
#
#
#
# Elastic Compliance Matrix: (Units=1/GPa)
#
#
# Indices 1 2 3 4 5 6 
#
# 1 0.015414 -0.009843 -0.001057 0.000000 0.000000 0.000000
# 2 -0.009843 0.015414 -0.001055 0.000000 0.000000 0.000000
# 3 -0.001057 -0.001055 0.058674 0.000000 0.000000 0.000000
# 4 0.000000 0.000000 0.000000 0.047928 0.000000 0.000000
# 5 0.000000 0.000000 0.000000 0.000000 0.047928 0.000000
# 6 0.000000 0.000000 0.000000 0.000000 0.000000 0.035694
#
#
# Mechanical properties :
#
#
# Convention : Reuss Voigt Hill
#
# Bulk Modulus (GPa) = 15.24581 43.51749 29.38165
# Shear Modulus (GPa) = 18.73886 24.64345 21.69115
#
# Velocity S-wave (km/s) = 3.03884 3.48488 3.26948
# Velocity P-wave (km/s) = 4.45263 6.13499 5.36022
#
# Compressibility (1/GPa) = 0.06559180
#
# Stress axis : x y z
#
# Youngs Moduli (GPa) = 64.87722 64.87702 17.04327
#
# Poissons Ratio (x) = 0.63859 0.01802
# Poissons Ratio (y) = 0.63859 0.01797
# Poissons Ratio (z) = 0.06859 0.06842
#
# Static dielectric constant tensor:
#      x y z
#    x 1.801370 0.000000 0.000000 
#    y 0.000000 1.801380 0.000000 
#    z 0.000000 0.000000 1.763990 
# 
# From -- ./inp_files/8617.got.cif
#   From: 2010.05.17/outbox.cif.g08.bks.cpg/sg141_5_cif.got.tgz:8617.got - 2010.05.20 13:30:51.
