data_PCOD9573781
_publ_section_title
;
Structure prediction by ZEFSAII (Michael W. Deem and Ramdas Pophale) SiO2 
 PCOD9573781
Probable space group: I 41/A C D
;
_chemical_formula_sum "Si O2"
_cell_formula_units_Z 144
_cell_length_a 14.816262
_cell_length_b 14.816262
_cell_length_c 26.598751
_cell_angle_alpha 90.000000
_cell_angle_beta 90.000000
_cell_angle_gamma 90.000000
_cell_volume 5839.000900
_symmetry_space_group_name_H-M "I 41/A C D"
_symmetry_group_IT_number 142
_space_group.IT_coordinate_system_code '2'
_symmetry_cell_setting 'tetragonal'
loop_
_space_group_symop_operation_xyz
x,y,z
1/4-y,3/4+x,1/4+z
-x,1/2-y,z
1/4+y,1/4-x,3/4+z
x,-y,1/2-z
1/2-x,y,-z
3/4+y,1/4+x,1/4-z
1/4-y,1/4-x,1/4-z
-x,-y,-z
3/4+y,1/4-x,3/4-z
x,1/2+y,-z
3/4-y,3/4+x,1/4-z
-x,y,1/2+z
1/2+x,-y,z
1/4-y,3/4-x,3/4+z
3/4+y,3/4+x,3/4+z
1/2+x,1/2+y,1/2+z
3/4-y,1/4+x,3/4+z
1/2-x,-y,1/2+z
3/4+y,3/4-x,1/4+z
1/2+x,1/2-y,-z
-x,1/2+y,1/2-z
1/4+y,3/4+x,3/4-z
3/4-y,3/4-x,3/4-z
1/2-x,1/2-y,1/2-z
1/4+y,3/4-x,1/4-z
1/2+x,y,1/2-z
1/4-y,1/4+x,3/4-z
1/2-x,1/2+y,z
x,1/2-y,1/2+z
3/4-y,1/4-x,1/4+z
1/4+y,1/4+x,1/4+z
loop_
_atom_site_type_symbol
_atom_site_label
_atom_site_fract_x
_atom_site_fract_y
_atom_site_fract_z
Si Si1 0.667081 0.099758 0.234393
Si Si2 0.168638 0.328126 0.662363
Si Si3 0.755350 0.351758 0.371956
Si Si4 0.948687 0.092613 0.277808
Si Si5 0.000000 0.750000 0.786342
O O1 0.705652 0.154897 0.282060
O O2 0.702225 0.131795 0.181813
O O3 0.558454 0.096007 0.225454
O O4 0.694460 0.000000 0.250000
O O5 0.163889 0.413889 0.625000
O O6 0.212111 0.247338 0.632140
O O7 0.065110 0.307552 0.678339
O O8 0.675810 0.425810 0.375000
O O9 0.828383 0.344575 0.417201
O O10 0.934027 0.185689 0.247120
O O11 0.921336 0.000000 0.250000
#
# Coordination Sequence:
#
# PCOD9573781 Si02
#       5
#    32  32  32  32  16
#     4  10  24  42  61  90 130 171 211 271 340 404
#     4  11  21  40  67  92 126 171 220 271 335 411
#     4  12  25  40  66  98 130 174 225 277 339 413
#     4  10  22  43  64  93 134 172 223 286 345 418
#     4  10  21  38  67  98 130 176 226 286 354 426
#
# _framework density 24.661754999999999
#
# number of rings (size 3 to 8) (size 9 to 14) (size 15 to 20)
#    0.000    1.333    0.000    7.667    0.000    8.889 
#    0.000    1.111    0.000    0.000    0.000    0.000 
#    0.000    0.000    0.000    0.000    0.000    0.000 
#
# Total GULP energy -402301.393682 kJ/mol
# GULP energy per Si atom -5587.519357 kJ/mol
# Density = 2.460562 g / cm^3
# Si number density = 24.661755 Si / 1000 Ang^3
#
#
#
# Elastic Constant Matrix: (Units=GPa)
#
#
# Indices 1 2 3 4 5 6 
#
# 1 56.4620 5.1846 28.5316 0.0000 0.0000 0.0000
# 2 5.1846 56.4620 28.5316 0.0000 0.0000 0.0000
# 3 28.5316 28.5316 183.1754 0.0000 0.0000 0.0000
# 4 0.0000 0.0000 0.0000 6.8470 0.0000 0.0000
# 5 0.0000 0.0000 0.0000 0.0000 6.8470 0.0000
# 6 0.0000 0.0000 0.0000 0.0000 0.0000 0.6832
#
#
#
# Elastic Compliance Matrix: (Units=1/GPa)
#
#
# Indices 1 2 3 4 5 6 
#
# 1 0.019228 -0.000274 -0.002952 0.000000 0.000000 0.000000
# 2 -0.000274 0.019228 -0.002952 0.000000 0.000000 0.000000
# 3 -0.002952 -0.002952 0.006379 0.000000 0.000000 0.000000
# 4 0.000000 0.000000 0.000000 0.146049 0.000000 0.000000
# 5 0.000000 0.000000 0.000000 0.000000 0.146049 0.000000
# 6 0.000000 0.000000 0.000000 0.000000 0.000000 1.463597
#
#
# Mechanical properties :
#
#
# Convention : Reuss Voigt Hill
#
# Bulk Modulus (GPa) = 30.78983 46.73278 38.76130
# Shear Modulus (GPa) = 2.74166 18.46556 10.60361
#
# Velocity S-wave (km/s) = 1.05552 2.73930 2.07580
# Velocity P-wave (km/s) = 3.74132 5.38476 4.63644
#
# Compressibility (1/GPa) = 0.03247826
#
# Stress axis : x y z
#
# Youngs Moduli (GPa) = 52.00735 52.00735 156.76506
#
# Poissons Ratio (x) = 0.01423 0.46283
# Poissons Ratio (y) = 0.01423 0.46283
# Poissons Ratio (z) = 0.15354 0.15354
#
# Static dielectric constant tensor:
#      x y z
#    x 2.048110 0.000000 0.000000 
#    y 0.000000 2.048110 0.000000 
#    z 0.000000 0.000000 2.014520 
# 
# From -- ./inp_files/10100.got.cif
#   From: 2010.05.17/outbox.cif.g08.bks.cpg/sg142_6_cif.got.tgz:10100.got - 2010.05.20 13:39:18.
