data_PCOD9573048
_publ_section_title
;
Structure prediction by ZEFSAII (Michael W. Deem and Ramdas Pophale) SiO2 
 PCOD9573048
Probable space group: I 41/A M D
;
_chemical_formula_sum "Si O2"
_cell_formula_units_Z 160
_cell_length_a 28.116857
_cell_length_b 28.116857
_cell_length_c 10.071384
_cell_angle_alpha 90.000000
_cell_angle_beta 90.000000
_cell_angle_gamma 90.000000
_cell_volume 7962.009643
_symmetry_space_group_name_H-M "I 41/A M D"
_symmetry_group_IT_number 141
_space_group.IT_coordinate_system_code '2'
_symmetry_cell_setting 'tetragonal'
loop_
_space_group_symop_operation_xyz
x,y,z
1/4-y,3/4+x,1/4+z
-x,1/2-y,z
1/4+y,1/4-x,3/4+z
x,-y,-z
-x,1/2+y,-z
1/4+y,3/4+x,1/4-z
1/4-y,1/4-x,3/4-z
-x,-y,-z
3/4+y,1/4-x,3/4-z
x,1/2+y,-z
3/4-y,3/4+x,1/4-z
-x,y,z
x,1/2-y,z
3/4-y,1/4-x,3/4+z
3/4+y,3/4+x,1/4+z
1/2+x,1/2+y,1/2+z
3/4-y,1/4+x,3/4+z
1/2-x,-y,1/2+z
3/4+y,3/4-x,1/4+z
1/2+x,1/2-y,1/2-z
1/2-x,y,1/2-z
3/4+y,1/4+x,3/4-z
3/4-y,3/4-x,1/4-z
1/2-x,1/2-y,1/2-z
1/4+y,3/4-x,1/4-z
1/2+x,y,1/2-z
1/4-y,1/4+x,3/4-z
1/2-x,1/2+y,1/2+z
1/2+x,-y,1/2+z
1/4-y,3/4-x,1/4+z
1/4+y,1/4+x,3/4+z
loop_
_atom_site_type_symbol
_atom_site_label
_atom_site_fract_x
_atom_site_fract_y
_atom_site_fract_z
Si Si1 0.075458 0.000000 0.500000
Si Si2 0.645875 0.068041 0.878634
Si Si3 0.589784 0.847718 0.217407
Si Si4 0.000000 0.881889 0.904679
Si Si5 0.841612 0.750000 0.032217
Si Si6 0.828716 0.498541 0.854220
Si Si7 0.000000 0.019441 0.273577
O O1 0.108141 0.954407 0.475175
O O2 0.044358 0.984508 0.626023
O O3 0.633848 0.119929 0.825942
O O4 0.644506 0.032896 0.751981
O O5 0.698276 0.068604 0.938672
O O6 0.588651 0.838651 0.375000
O O7 0.598843 0.797636 0.142044
O O8 0.544515 0.883420 0.206035
O O9 0.000000 0.931714 0.816866
O O10 0.000000 0.895253 0.061568
O O11 0.784118 0.750000 0.038241
O O12 0.779518 0.470483 0.875000
O O13 0.852372 0.500000 0.000000
#
# Coordination Sequence:
#
# PCOD9573048 Si02
#       7
#    16  32  32  16  16  32  16
#     4  11  26  38  62  82 124 176 214 259 306 380
#     4  11  22  37  57  90 123 171 210 254 316 381
#     4  10  21  39  64  96 123 155 207 270 336 383
#     4  10  24  40  68 100 121 158 218 270 323 395
#     4  10  20  42  68  93 131 161 197 268 339 383
#     4   9  20  36  55  84 127 165 201 259 307 372
#     4  11  23  48  58  91 127 166 219 255 316 380
#
# _framework density 20.095428999999999
#
# number of rings (size 3 to 8) (size 9 to 14) (size 15 to 20)
#    0.000    1.800    2.000    2.100    7.000    0.400 
#    0.000    2.000    0.000    0.000    0.000    1.400 
#    0.000    0.000    0.000    0.000    0.000    0.000 
#
# Total GULP energy -445448.919026 kJ/mol
# GULP energy per Si atom -5568.111488 kJ/mol
# Density = 2.004969 g / cm^3
# Si number density = 20.095429 Si / 1000 Ang^3
#
#
#
# Elastic Constant Matrix: (Units=GPa)
#
#
# Indices 1 2 3 4 5 6 
#
# 1 92.7109 18.2645 15.1817 0.0000 0.0000 0.0000
# 2 18.2645 92.7059 15.1827 0.0000 0.0000 0.0000
# 3 15.1817 15.1827 32.0722 0.0000 0.0000 0.0000
# 4 0.0000 0.0000 0.0000 -14.9679 0.0000 0.0000
# 5 0.0000 0.0000 0.0000 0.0000 -14.9607 0.0000
# 6 0.0000 0.0000 0.0000 0.0000 0.0000 64.3528
#
#
#
# Elastic Compliance Matrix: (Units=1/GPa)
#
#
# Indices 1 2 3 4 5 6 
#
# 1 0.011892 -0.001540 -0.004900 0.000000 0.000000 0.000000
# 2 -0.001540 0.011893 -0.004901 0.000000 0.000000 0.000000
# 3 -0.004900 -0.004901 0.035819 0.000000 0.000000 0.000000
# 4 0.000000 0.000000 0.000000 -0.066810 0.000000 0.000000
# 5 0.000000 0.000000 0.000000 0.000000 -0.066842 0.000000
# 6 0.000000 0.000000 0.000000 0.000000 0.000000 0.015539
#
#
# Mechanical properties :
#
#
# Convention : Reuss Voigt Hill
#
# Bulk Modulus (GPa) = 27.08444 34.97187 31.02816
# Shear Modulus (GPa) = -212.60099 18.14218 -97.22940
#
# Velocity S-wave (km/s) = -10.29686 3.00793 -6.96340
# Velocity P-wave (km/s) = 11.30752 5.43177 7.01270
#
# Compressibility (1/GPa) = 0.03692156
#
# Stress axis : x y z
#
# Youngs Moduli (GPa) = 84.08957 84.08372 27.91808
#
# Poissons Ratio (x) = 0.12953 0.13680
# Poissons Ratio (y) = 0.12953 0.13682
# Poissons Ratio (z) = 0.41204 0.41208
#
# Static dielectric constant tensor:
#      x y z
#    x 1.748250 0.000000 0.000000 
#    y 0.000000 1.748250 0.000000 
#    z 0.000000 0.000000 1.879620 
# 
# From -- ./inp_files/4973.got.cif
#   From: 2010.05.17/outbox.cif.g08.bks.cpg/sg141_3_cif.got.tgz:4973.got - 2010.05.20 13:30:51.
