data_PCOD9573366
_publ_section_title
;
Structure prediction by ZEFSAII (Michael W. Deem and Ramdas Pophale) SiO2 
 PCOD9573366
Probable space group: I 41/A M D
;
_chemical_formula_sum "Si O2"
_cell_formula_units_Z 64
_cell_length_a 15.544859
_cell_length_b 15.544859
_cell_length_c 11.248838
_cell_angle_alpha 90.000000
_cell_angle_beta 90.000000
_cell_angle_gamma 90.000000
_cell_volume 2718.198926
_symmetry_space_group_name_H-M "I 41/A M D"
_symmetry_group_IT_number 141
_space_group.IT_coordinate_system_code '2'
_symmetry_cell_setting 'tetragonal'
loop_
_space_group_symop_operation_xyz
x,y,z
1/4-y,3/4+x,1/4+z
-x,1/2-y,z
1/4+y,1/4-x,3/4+z
x,-y,-z
-x,1/2+y,-z
1/4+y,3/4+x,1/4-z
1/4-y,1/4-x,3/4-z
-x,-y,-z
3/4+y,1/4-x,3/4-z
x,1/2+y,-z
3/4-y,3/4+x,1/4-z
-x,y,z
x,1/2-y,z
3/4-y,1/4-x,3/4+z
3/4+y,3/4+x,1/4+z
1/2+x,1/2+y,1/2+z
3/4-y,1/4+x,3/4+z
1/2-x,-y,1/2+z
3/4+y,3/4-x,1/4+z
1/2+x,1/2-y,1/2-z
1/2-x,y,1/2-z
3/4+y,1/4+x,3/4-z
3/4-y,3/4-x,1/4-z
1/2-x,1/2-y,1/2-z
1/4+y,3/4-x,1/4-z
1/2+x,y,1/2-z
1/4-y,1/4+x,3/4-z
1/2-x,1/2+y,1/2+z
1/2+x,-y,1/2+z
1/4-y,3/4-x,1/4+z
1/4+y,1/4+x,3/4+z
loop_
_atom_site_type_symbol
_atom_site_label
_atom_site_fract_x
_atom_site_fract_y
_atom_site_fract_z
Si Si1 0.750000 0.947962 0.250000
Si Si2 0.897330 0.352671 0.375000
Si Si3 0.400643 0.146199 0.860827
O O1 0.746309 0.996309 0.375000
O O2 0.664179 0.890733 0.235151
O O3 0.882961 0.250000 0.371809
O O4 0.869469 0.381308 0.243878
O O5 0.500000 0.117560 0.845021
O O6 0.400727 0.250000 0.857955
#
# Coordination Sequence:
#
# PCOD9573366 Si02
#       3
#    16  16  32
#     4  12  29  46  63  96 144 186 234 286 346 414
#     4   7  12  28  60 100 134 168 218 273 334 412
#     4   9  19  40  72 105 137 179 231 289 353 416
#
# _framework density 23.545003000000001
#
# number of rings (size 3 to 8) (size 9 to 14) (size 15 to 20)
#    0.000    2.750    0.000    3.750    3.500    4.000 
#    0.000    3.750    0.000    0.000    0.000    0.000 
#    0.000    0.000    0.000    0.000    0.000    0.000 
#
# Total GULP energy -178640.413960 kJ/mol
# GULP energy per Si atom -5582.512936 kJ/mol
# Density = 2.349141 g / cm^3
# Si number density = 23.545003 Si / 1000 Ang^3
#
#
#
# Elastic Constant Matrix: (Units=GPa)
#
#
# Indices 1 2 3 4 5 6 
#
# 1 71.8203 41.9204 52.0654 0.0000 0.0000 0.0000
# 2 41.9204 71.8185 52.0655 0.0000 0.0000 0.0000
# 3 52.0654 52.0655 150.0039 0.0000 0.0000 0.0000
# 4 0.0000 0.0000 0.0000 39.4566 0.0000 0.0000
# 5 0.0000 0.0000 0.0000 0.0000 39.4568 0.0000
# 6 0.0000 0.0000 0.0000 0.0000 0.0000 25.0020
#
#
#
# Elastic Compliance Matrix: (Units=1/GPa)
#
#
# Indices 1 2 3 4 5 6 
#
# 1 0.023166 -0.010279 -0.004473 0.000000 0.000000 0.000000
# 2 -0.010279 0.023167 -0.004473 0.000000 0.000000 0.000000
# 3 -0.004473 -0.004473 0.009772 0.000000 0.000000 0.000000
# 4 0.000000 0.000000 0.000000 0.025344 0.000000 0.000000
# 5 0.000000 0.000000 0.000000 0.000000 0.025344 0.000000
# 6 0.000000 0.000000 0.000000 0.000000 0.000000 0.039997
#
#
# Mechanical properties :
#
#
# Convention : Reuss Voigt Hill
#
# Bulk Modulus (GPa) = 56.64524 65.08282 60.86403
# Shear Modulus (GPa) = 26.16081 30.62251 28.39166
#
# Velocity S-wave (km/s) = 3.33693 3.61029 3.47630
# Velocity P-wave (km/s) = 6.24158 6.71422 6.48221
#
# Compressibility (1/GPa) = 0.01765373
#
# Stress axis : x y z
#
# Youngs Moduli (GPa) = 43.16644 43.16491 102.33700
#
# Poissons Ratio (x) = 0.44371 0.45774
# Poissons Ratio (y) = 0.44372 0.45777
# Poissons Ratio (z) = 0.19308 0.19309
#
# Static dielectric constant tensor:
#      x y z
#    x 1.876330 0.000000 0.000000 
#    y 0.000000 1.876340 0.000000 
#    z 0.000000 0.000000 1.878470 
# 
# From -- ./inp_files/3796.got.cif
#   From: 2010.05.17/outbox.cif.g08.bks.cpg/sg141_2_cif.got.tgz:3796.got - 2010.05.20 13:30:51.
