data_PCOD9573247
_publ_section_title
;
Structure prediction by ZEFSAII (Michael W. Deem and Ramdas Pophale) SiO2 
 PCOD9573247
Probable space group: I 41/A M D
;
_chemical_formula_sum "Si O2"
_cell_formula_units_Z 112
_cell_length_a 17.710558
_cell_length_b 17.710558
_cell_length_c 18.777787
_cell_angle_alpha 90.000000
_cell_angle_beta 90.000000
_cell_angle_gamma 90.000000
_cell_volume 5889.913240
_symmetry_space_group_name_H-M "I 41/A M D"
_symmetry_group_IT_number 141
_space_group.IT_coordinate_system_code '2'
_symmetry_cell_setting 'tetragonal'
loop_
_space_group_symop_operation_xyz
x,y,z
1/4-y,3/4+x,1/4+z
-x,1/2-y,z
1/4+y,1/4-x,3/4+z
x,-y,-z
-x,1/2+y,-z
1/4+y,3/4+x,1/4-z
1/4-y,1/4-x,3/4-z
-x,-y,-z
3/4+y,1/4-x,3/4-z
x,1/2+y,-z
3/4-y,3/4+x,1/4-z
-x,y,z
x,1/2-y,z
3/4-y,1/4-x,3/4+z
3/4+y,3/4+x,1/4+z
1/2+x,1/2+y,1/2+z
3/4-y,1/4+x,3/4+z
1/2-x,-y,1/2+z
3/4+y,3/4-x,1/4+z
1/2+x,1/2-y,1/2-z
1/2-x,y,1/2-z
3/4+y,1/4+x,3/4-z
3/4-y,3/4-x,1/4-z
1/2-x,1/2-y,1/2-z
1/4+y,3/4-x,1/4-z
1/2+x,y,1/2-z
1/4-y,1/4+x,3/4-z
1/2-x,1/2+y,1/2+z
1/2+x,-y,1/2+z
1/4-y,3/4-x,1/4+z
1/4+y,1/4+x,3/4+z
loop_
_atom_site_type_symbol
_atom_site_label
_atom_site_fract_x
_atom_site_fract_y
_atom_site_fract_z
Si Si1 0.500000 0.658523 0.207383
Si Si2 0.632302 0.453744 0.767697
Si Si3 0.136191 0.664765 0.553692
Si Si4 0.091415 0.250000 0.207517
Si Si5 0.771569 0.978432 0.125000
O O1 0.500000 0.750000 0.216300
O O2 0.576720 0.618220 0.234317
O O3 0.500000 0.637076 0.123919
O O4 0.584924 0.530505 0.773763
O O5 0.675122 0.462182 0.692608
O O6 0.690418 0.459648 0.835840
O O7 0.113124 0.750000 0.573277
O O8 0.132862 0.617139 0.625000
O O9 0.075048 0.633562 0.498342
O O10 0.000000 0.250000 0.207899
#
# Coordination Sequence:
#
# PCOD9573247 Si02
#       5
#    16  32  32  16  16
#     4  11  24  45  63  91 121 164 220 275 312 370
#     4  11  22  43  63  91 126 163 211 261 324 377
#     4  11  19  33  58  96 134 172 199 236 296 384
#     4   9  20  33  57  89 133 166 200 238 301 366
#     4  10  24  42  65  90 123 164 204 266 328 384
#
# _framework density 19.015561000000002
#
# number of rings (size 3 to 8) (size 9 to 14) (size 15 to 20)
#    0.000    1.429    4.286    1.714    0.000    0.000 
#    5.143    2.857    0.000    0.000    0.000    0.000 
#    0.000    0.000    0.000    0.000    0.000    0.000 
#
# Total GULP energy -311826.768739 kJ/mol
# GULP energy per Si atom -5568.335156 kJ/mol
# Density = 1.897228 g / cm^3
# Si number density = 19.015561 Si / 1000 Ang^3
#
#
#
# Elastic Constant Matrix: (Units=GPa)
#
#
# Indices 1 2 3 4 5 6 
#
# 1 107.1788 48.0022 38.8344 0.0000 0.0000 0.0000
# 2 48.0022 107.1799 38.8345 0.0000 0.0000 0.0000
# 3 38.8344 38.8345 105.0729 0.0000 0.0000 0.0000
# 4 0.0000 0.0000 0.0000 14.5952 0.0000 0.0000
# 5 0.0000 0.0000 0.0000 0.0000 14.5952 0.0000
# 6 0.0000 0.0000 0.0000 0.0000 0.0000 26.4442
#
#
#
# Elastic Compliance Matrix: (Units=1/GPa)
#
#
# Indices 1 2 3 4 5 6 
#
# 1 0.012403 -0.004496 -0.002922 0.000000 0.000000 0.000000
# 2 -0.004496 0.012402 -0.002922 0.000000 0.000000 0.000000
# 3 -0.002922 -0.002922 0.011677 0.000000 0.000000 0.000000
# 4 0.000000 0.000000 0.000000 0.068516 0.000000 0.000000
# 5 0.000000 0.000000 0.000000 0.000000 0.068515 0.000000
# 6 0.000000 0.000000 0.000000 0.000000 0.000000 0.037816
#
#
# Mechanical properties :
#
#
# Convention : Reuss Voigt Hill
#
# Bulk Modulus (GPa) = 63.28480 63.41931 63.35205
# Shear Modulus (GPa) = 21.07241 24.04429 22.55835
#
# Velocity S-wave (km/s) = 3.33253 3.55977 3.44802
# Velocity P-wave (km/s) = 6.93977 7.09363 7.01712
#
# Compressibility (1/GPa) = 0.01580158
#
# Stress axis : x y z
#
# Youngs Moduli (GPa) = 80.62823 80.62910 85.63611
#
# Poissons Ratio (x) = 0.36250 0.25025
# Poissons Ratio (y) = 0.36249 0.25025
# Poissons Ratio (z) = 0.23562 0.23562
#
# Static dielectric constant tensor:
#      x y z
#    x 1.717220 0.000000 0.000000 
#    y 0.000000 1.717210 0.000000 
#    z 0.000000 0.000000 1.645760 
# 
# From -- ./inp_files/7986.got.cif
#   From: 2010.05.17/outbox.cif.g08.bks.cpg/sg141_4_cif.got.tgz:7986.got - 2010.05.20 13:30:51.
