data_PCOD9574129
_publ_section_title
;
Structure prediction by ZEFSAII (Michael W. Deem and Ramdas Pophale) SiO2 
 PCOD9574129
Probable space group: I 41/A C D
;
_chemical_formula_sum "Si O2"
_cell_formula_units_Z 144
_cell_length_a 18.428351
_cell_length_b 18.428351
_cell_length_c 21.793915
_cell_angle_alpha 90.000000
_cell_angle_beta 90.000000
_cell_angle_gamma 90.000000
_cell_volume 7401.303338
_symmetry_space_group_name_H-M "I 41/A C D"
_symmetry_group_IT_number 142
_space_group.IT_coordinate_system_code '2'
_symmetry_cell_setting 'tetragonal'
loop_
_space_group_symop_operation_xyz
x,y,z
1/4-y,3/4+x,1/4+z
-x,1/2-y,z
1/4+y,1/4-x,3/4+z
x,-y,1/2-z
1/2-x,y,-z
3/4+y,1/4+x,1/4-z
1/4-y,1/4-x,1/4-z
-x,-y,-z
3/4+y,1/4-x,3/4-z
x,1/2+y,-z
3/4-y,3/4+x,1/4-z
-x,y,1/2+z
1/2+x,-y,z
1/4-y,3/4-x,3/4+z
3/4+y,3/4+x,3/4+z
1/2+x,1/2+y,1/2+z
3/4-y,1/4+x,3/4+z
1/2-x,-y,1/2+z
3/4+y,3/4-x,1/4+z
1/2+x,1/2-y,-z
-x,1/2+y,1/2-z
1/4+y,3/4+x,3/4-z
3/4-y,3/4-x,3/4-z
1/2-x,1/2-y,1/2-z
1/4+y,3/4-x,1/4-z
1/2+x,y,1/2-z
1/4-y,1/4+x,3/4-z
1/2-x,1/2+y,z
x,1/2-y,1/2+z
3/4-y,1/4-x,1/4+z
1/4+y,1/4+x,1/4+z
loop_
_atom_site_type_symbol
_atom_site_label
_atom_site_fract_x
_atom_site_fract_y
_atom_site_fract_z
Si Si1 0.045377 0.896198 0.914113
Si Si2 0.656975 0.661838 0.304488
Si Si3 0.381883 0.868118 0.625000
Si Si4 0.685327 0.179215 0.147509
Si Si5 0.831658 0.053353 0.516595
O O1 0.090296 0.840296 0.875000
O O2 0.961258 0.881003 0.902150
O O3 0.066227 0.977497 0.893169
O O4 0.066931 0.886645 0.985045
O O5 0.660776 0.738426 0.339715
O O6 0.604899 0.606325 0.339917
O O7 0.735854 0.624421 0.297097
O O8 0.328863 0.884828 0.568256
O O9 0.672477 0.127336 0.206905
O O10 0.750000 0.031231 0.500000
#
# Coordination Sequence:
#
# PCOD9574129 Si02
#       5
#    32  32  16  32  32
#     4  11  25  44  68  97 141 180 229 284 346 411
#     4  11  24  47  68 100 138 180 225 291 342 409
#     4  12  21  46  68  96 140 186 224 283 346 406
#     4  11  24  45  70  98 139 177 226 287 340 412
#     4  11  23  40  73 104 132 176 235 286 342 401
#
# _framework density 19.456033999999999
#
# number of rings (size 3 to 8) (size 9 to 14) (size 15 to 20)
#    0.000    0.889    4.444    3.000    6.222    2.222 
#    4.000    0.000    0.000    0.000    0.000    0.000 
#    0.000    0.000    0.000    0.000    0.000    0.000 
#
# Total GULP energy -402361.595048 kJ/mol
# GULP energy per Si atom -5588.355487 kJ/mol
# Density = 1.941175 g / cm^3
# Si number density = 19.456034 Si / 1000 Ang^3
#
#
#
# Elastic Constant Matrix: (Units=GPa)
#
#
# Indices 1 2 3 4 5 6 
#
# 1 98.8745 34.6494 68.1555 0.0000 0.0000 0.0000
# 2 34.6494 98.8728 68.1549 0.0000 0.0000 0.0000
# 3 68.1555 68.1549 105.6130 0.0000 0.0000 0.0000
# 4 0.0000 0.0000 0.0000 49.6500 0.0000 0.0000
# 5 0.0000 0.0000 0.0000 0.0000 49.6510 0.0000
# 6 0.0000 0.0000 0.0000 0.0000 0.0000 21.4185
#
#
#
# Elastic Compliance Matrix: (Units=1/GPa)
#
#
# Indices 1 2 3 4 5 6 
#
# 1 0.018760 0.003190 -0.014165 0.000000 0.000000 0.000000
# 2 0.003190 0.018760 -0.014165 0.000000 0.000000 0.000000
# 3 -0.014165 -0.014165 0.027751 0.000000 0.000000 0.000000
# 4 0.000000 0.000000 0.000000 0.020141 0.000000 0.000000
# 5 0.000000 0.000000 0.000000 0.000000 0.020141 0.000000
# 6 0.000000 0.000000 0.000000 0.000000 0.000000 0.046689
#
#
# Mechanical properties :
#
#
# Convention : Reuss Voigt Hill
#
# Bulk Modulus (GPa) = 66.70766 71.69777 69.20271
# Shear Modulus (GPa) = 24.09418 32.97059 28.53239
#
# Velocity S-wave (km/s) = 3.52290 4.12104 3.83365
# Velocity P-wave (km/s) = 7.13502 7.71850 7.43249
#
# Compressibility (1/GPa) = 0.01499078
#
# Stress axis : x y z
#
# Youngs Moduli (GPa) = 53.30463 53.30362 36.03503
#
# Poissons Ratio (x) = -0.17003 0.51043
# Poissons Ratio (y) = -0.17003 0.51044
# Poissons Ratio (z) = 0.75506 0.75505
#
# Static dielectric constant tensor:
#      x y z
#    x 1.678010 0.000000 0.000000 
#    y 0.000000 1.678010 0.000000 
#    z 0.000000 0.000000 1.701500 
# 
# From -- ./inp_files/10108.got.cif
#   From: 2010.05.17/outbox.cif.g08.bks.cpg/sg142_6_cif.got.tgz:10108.got - 2010.05.20 13:39:18.
