data_PCOD9574607
_publ_section_title
;
Structure prediction by ZEFSAII (Michael W. Deem and Ramdas Pophale) SiO2 
 PCOD9574607
Probable space group: P 32
;
_chemical_formula_sum "Si O2"
_cell_formula_units_Z 15
_cell_length_a 10.167182
_cell_length_b 10.167182
_cell_length_c 7.153234
_cell_angle_alpha 90.000000
_cell_angle_beta 90.000000
_cell_angle_gamma 120.000000
_cell_volume 640.374839
_symmetry_space_group_name_H-M "P 32"
_symmetry_group_IT_number 145
_symmetry_cell_setting 'hexagonal'
loop_
_space_group_symop_operation_xyz
x,y,z
-y,x-y,2/3+z
-x+y,-x,1/3+z
loop_
_atom_site_type_symbol
_atom_site_label
_atom_site_fract_x
_atom_site_fract_y
_atom_site_fract_z
Si Si1 0.560260 0.308990 0.288260
Si Si2 0.066523 0.946826 0.911683
Si Si3 0.260930 0.717738 0.302333
Si Si4 0.969732 0.251476 0.055699
Si Si5 0.384032 0.984889 0.788240
O O1 0.602215 0.327044 0.504105
O O2 0.395836 0.165145 0.254335
O O3 0.587822 0.470491 0.222802
O O4 0.908415 0.080635 0.127507
O O5 0.011052 0.917600 0.128036
O O6 0.220819 0.941829 0.879692
O O7 0.244584 0.657505 0.089041
O O8 0.143603 0.573368 0.424700
O O9 0.235978 0.862043 0.315661
O O10 0.970389 0.335715 0.246331
#
# Coordination Sequence:
#
# PCOD9574607 Si02
#       5
#     3   3   3   3   3
#     4  12  26  44  68  98 136 186 226 288 348 420
#     4  10  24  43  68 104 138 182 229 290 339 419
#     4  10  24  43  68 104 138 182 229 290 339 419
#     4  10  24  45  68 103 140 178 237 281 350 413
#     4  10  24  45  68 103 140 178 237 281 350 413
#
# _framework density 23.423780000000001
#
# number of rings (size 3 to 8) (size 9 to 14) (size 15 to 20)
#    0.000    1.600    2.000    0.000   14.000    0.000 
#    0.000    0.000    0.000    0.000    0.000    0.000 
#    0.000    0.000    0.000    0.000    0.000    0.000 
#
# Total GULP energy -83557.253777 kJ/mol
# GULP energy per Si atom -5570.483585 kJ/mol
# Density = 2.337047 g / cm^3
# Si number density = 23.423780 Si / 1000 Ang^3
#
#
#
# Elastic Constant Matrix: (Units=GPa)
#
#
# Indices 1 2 3 4 5 6 
#
# 1 136.1060 105.4960 12.2225 -5.5634 10.9975 0.0000
# 2 105.4960 136.1060 12.2225 5.5634 -10.9975 0.0000
# 3 12.2225 12.2225 69.6781 0.0000 0.0000 0.0000
# 4 -5.5634 5.5634 0.0000 26.5831 0.0000 -10.9975
# 5 10.9975 -10.9975 0.0000 0.0000 26.5831 -5.5634
# 6 0.0000 0.0000 0.0000 -10.9975 -5.5634 15.3050
#
#
#
# Elastic Compliance Matrix: (Units=1/GPa)
#
#
# Indices 1 2 3 4 5 6 
#
# 1 0.028173 -0.023959 -0.000739 0.010910 -0.021567 0.000000
# 2 -0.023959 0.028173 -0.000739 -0.010910 0.021567 0.000000
# 3 -0.000739 -0.000739 0.014611 0.000000 0.000000 0.000000
# 4 0.010910 -0.010910 0.000000 0.060029 0.000000 0.043134
# 5 -0.021567 0.021567 0.000000 0.000000 0.060029 0.021821
# 6 0.000000 0.000000 0.000000 0.043134 0.021821 0.104264
#
#
# Mechanical properties :
#
#
# Convention : Reuss Voigt Hill
#
# Bulk Modulus (GPa) = 49.79577 66.86356 58.32966
# Shear Modulus (GPa) = 14.17037 27.82420 20.99728
#
# Velocity S-wave (km/s) = 2.46225 3.45028 2.99726
# Velocity P-wave (km/s) = 5.42111 6.66931 6.07734
#
# Compressibility (1/GPa) = 0.02008203
#
# Stress axis : x y z
#
# Youngs Moduli (GPa) = 35.49496 35.49496 68.44148
#
# Poissons Ratio (x) = 0.85043 0.05059
# Poissons Ratio (y) = 0.85043 0.05059
# Poissons Ratio (z) = 0.02624 0.02624
#
# Static dielectric constant tensor:
#      x y z
#    x 1.938340 0.000000 0.000000 
#    y 0.000000 1.938340 0.000000 
#    z 0.000000 0.000000 1.936110 
# 
# From -- ./inp_files/271.got.cif
#   From: 2010.05.17/outbox.cif.g08.bks.cpg/sg145_cif.got.tgz:271.got - 2010.05.20 13:47:28.
