data_PCOD9574588
_publ_section_title
;
Structure prediction by ZEFSAII (Michael W. Deem and Ramdas Pophale) SiO2 
 PCOD9574588
Probable space group: P 32
;
_chemical_formula_sum "Si O2"
_cell_formula_units_Z 24
_cell_length_a 11.505782
_cell_length_b 11.505782
_cell_length_c 8.670527
_cell_angle_alpha 90.000000
_cell_angle_beta 90.000000
_cell_angle_gamma 120.000000
_cell_volume 994.050411
_symmetry_space_group_name_H-M "P 32"
_symmetry_group_IT_number 145
_symmetry_cell_setting 'hexagonal'
loop_
_space_group_symop_operation_xyz
x,y,z
-y,x-y,2/3+z
-x+y,-x,1/3+z
loop_
_atom_site_type_symbol
_atom_site_label
_atom_site_fract_x
_atom_site_fract_y
_atom_site_fract_z
Si Si1 0.093797 0.061732 0.938570
Si Si2 0.515630 0.525438 0.925631
Si Si3 0.339670 0.335550 0.538616
Si Si4 0.131169 0.772833 0.204555
Si Si5 0.680445 0.768205 0.123437
Si Si6 0.517298 0.280294 0.096951
Si Si7 0.493933 0.213158 0.428898
Si Si8 0.397662 0.978421 0.063969
O O1 0.178537 0.221449 0.963310
O O2 0.004848 0.036291 0.775845
O O3 0.193965 0.011216 0.879427
O O4 0.626785 0.672782 0.977713
O O5 0.512647 0.404456 0.025277
O O6 0.362377 0.489974 0.927127
O O7 0.582496 0.508892 0.769210
O O8 0.279216 0.336947 0.705012
O O9 0.213862 0.299797 0.428536
O O10 0.398109 0.234951 0.544401
O O11 0.454008 0.474574 0.468226
O O12 0.275416 0.902869 0.182802
O O13 0.562786 0.670625 0.243867
O O14 0.451653 0.242811 0.265103
O O15 0.671017 0.317465 0.125180
O O16 0.449645 0.133815 0.019187
#
# Coordination Sequence:
#
# PCOD9574588 Si02
#       8
#     3   3   3   3   3   3   3   3
#     4  12  26  52  82 110 160 216 268 336 406 484
#     4  12  24  38  72 102 140 186 246 302 388 452
#     4  10  22  44  68  92 144 189 240 316 386 448
#     4  11  25  46  66 107 147 199 255 319 381 487
#     4  11  25  46  66 107 147 199 255 319 381 487
#     4  11  22  38  64 101 130 171 228 299 370 435
#     4  11  22  38  64 101 130 171 228 299 370 435
#     4  10  22  44  68  92 144 189 240 316 386 448
#
# _framework density 24.143643999999998
#
# number of rings (size 3 to 8) (size 9 to 14) (size 15 to 20)
#    0.000    1.000    3.750    4.500    1.750    3.000 
#    4.500    0.000    0.000    0.000    0.000    0.000 
#    0.000    0.000    0.000    0.000    0.000    0.000 
#
# Total GULP energy -133847.265162 kJ/mol
# GULP energy per Si atom -5576.969382 kJ/mol
# Density = 2.408869 g / cm^3
# Si number density = 24.143644 Si / 1000 Ang^3
#
#
#
# Elastic Constant Matrix: (Units=GPa)
#
#
# Indices 1 2 3 4 5 6 
#
# 1 71.5771 26.2311 -5.3549 0.3424 -1.2769 0.0000
# 2 26.2311 71.5771 -5.3549 -0.3424 1.2769 0.0000
# 3 -5.3549 -5.3549 49.9011 0.0000 0.0000 0.0000
# 4 0.3424 -0.3424 0.0000 28.7222 0.0000 1.2769
# 5 -1.2769 1.2769 0.0000 0.0000 28.7222 0.3424
# 6 0.0000 0.0000 0.0000 1.2769 0.3424 22.6730
#
#
#
# Elastic Compliance Matrix: (Units=1/GPa)
#
#
# Indices 1 2 3 4 5 6 
#
# 1 0.016229 -0.005883 0.001110 -0.000264 0.000983 0.000000
# 2 -0.005883 0.016229 0.001110 0.000264 -0.000983 0.000000
# 3 0.001110 0.001110 0.020278 0.000000 0.000000 0.000000
# 4 -0.000264 0.000264 0.000000 0.034910 0.000000 -0.001966
# 5 0.000983 -0.000983 0.000000 0.000000 0.034910 -0.000527
# 6 0.000000 0.000000 0.000000 -0.001966 -0.000527 0.044224
#
#
# Mechanical properties :
#
#
# Convention : Reuss Voigt Hill
#
# Bulk Modulus (GPa) = 22.02158 24.89977 23.46068
# Shear Modulus (GPa) = 26.42121 27.85906 27.14013
#
# Velocity S-wave (km/s) = 3.31166 3.40058 3.35641
# Velocity P-wave (km/s) = 4.87480 5.07485 4.97583
#
# Compressibility (1/GPa) = 0.04541001
#
# Stress axis : x y z
#
# Youngs Moduli (GPa) = 61.61873 61.61873 49.31470
#
# Poissons Ratio (x) = 0.36251 -0.05475
# Poissons Ratio (y) = 0.36251 -0.05475
# Poissons Ratio (z) = -0.06841 -0.06841
#
# Static dielectric constant tensor:
#      x y z
#    x 1.948960 0.000000 0.000000 
#    y 0.000000 1.948960 0.000000 
#    z 0.000000 0.000000 2.143290 
# 
# From -- ./inp_files/444.got.cif
#   From: 2010.05.17/outbox.cif.g08.bks.cpg/sg145_cif.got.tgz:444.got - 2010.05.20 13:47:28.
