data_PCOD9574522
_publ_section_title
;
Structure prediction by ZEFSAII (Michael W. Deem and Ramdas Pophale) SiO2 
 PCOD9574522
Probable space group: P 31
;
_chemical_formula_sum "Si O2"
_cell_formula_units_Z 6
_cell_length_a 4.929543
_cell_length_b 4.929543
_cell_length_c 10.879381
_cell_angle_alpha 90.000000
_cell_angle_beta 90.000000
_cell_angle_gamma 120.000000
_cell_volume 228.953948
_symmetry_space_group_name_H-M "P 31"
_symmetry_group_IT_number 144
_symmetry_cell_setting 'hexagonal'
loop_
_space_group_symop_operation_xyz
x,y,z
-y,x-y,1/3+z
-x+y,-x,2/3+z
loop_
_atom_site_type_symbol
_atom_site_label
_atom_site_fract_x
_atom_site_fract_y
_atom_site_fract_z
Si Si1 0.869799 0.203135 0.382480
Si Si2 0.869802 0.203133 0.882480
O O1 0.907100 0.513662 0.320691
O O2 0.606555 0.092897 0.487357
O O3 0.180323 0.240433 0.444270
O O4 0.759565 0.939894 0.277602
#
# Coordination Sequence:
#
# PCOD9574522 Si02
#       2
#     3   3
#     4  12  30  52  80 116 156 204 258 318 384 458
#     4  12  30  52  80 116 156 204 258 318 384 458
#
# _framework density 26.206144999999999
#
# number of rings (size 3 to 8) (size 9 to 14) (size 15 to 20)
#    0.000    0.000    0.000    6.000    0.000   40.000 
#    0.000    0.000    0.000    0.000    0.000    0.000 
#    0.000    0.000    0.000    0.000    0.000    0.000 
#
# Total GULP energy -33790.262887 kJ/mol
# GULP energy per Si atom -5631.710481 kJ/mol
# Density = 2.614650 g / cm^3
# Si number density = 26.206145 Si / 1000 Ang^3
#
#
#
# Elastic Constant Matrix: (Units=GPa)
#
#
# Indices 1 2 3 4 5 6 
#
# 1 89.9037 9.3673 16.2425 17.2053 0.0001 0.0000
# 2 9.3673 89.9037 16.2425 -17.2053 -0.0001 0.0000
# 3 16.2425 16.2425 109.9486 0.0000 0.0000 0.0000
# 4 17.2053 -17.2053 0.0000 50.4824 0.0000 -0.0001
# 5 0.0001 -0.0001 0.0000 0.0000 50.4824 17.2053
# 6 0.0000 0.0000 0.0000 -0.0001 17.2053 40.2682
#
#
#
# Elastic Compliance Matrix: (Units=1/GPa)
#
#
# Indices 1 2 3 4 5 6 
#
# 1 0.012559 -0.001974 -0.001564 -0.004953 0.000000 0.000000
# 2 -0.001974 0.012559 -0.001564 0.004953 0.000000 0.000000
# 3 -0.001564 -0.001564 0.009557 0.000000 0.000000 0.000000
# 4 -0.004953 0.004953 0.000000 0.023185 0.000000 0.000000
# 5 0.000000 0.000000 0.000000 0.000000 0.023185 -0.009906
# 6 0.000000 0.000000 0.000000 0.000000 -0.009906 0.029066
#
#
# Mechanical properties :
#
#
# Convention : Reuss Voigt Hill
#
# Bulk Modulus (GPa) = 40.86206 41.49559 41.17883
# Shear Modulus (GPa) = 38.91899 44.77351 41.84625
#
# Velocity S-wave (km/s) = 3.85789 4.13790 4.00035
# Velocity P-wave (km/s) = 5.95574 6.22079 6.08971
#
# Compressibility (1/GPa) = 0.02447258
#
# Stress axis : x y z
#
# Youngs Moduli (GPa) = 79.62355 79.62355 104.63344
#
# Poissons Ratio (x) = 0.15717 0.16362
# Poissons Ratio (y) = 0.15717 0.16362
# Poissons Ratio (z) = 0.12451 0.12451
#
# Static dielectric constant tensor:
#      x y z
#    x 1.961170 0.000000 0.000000 
#    y 0.000000 1.961170 0.000000 
#    z 0.000000 0.000000 2.003230 
# 
# From -- ./inp_files/35.got.cif
#   From: 2010.05.17/outbox.cif.g08.bks.cpg/sg144_cif.got.tgz:35.got - 2010.05.20 13:46:34.
