data_PCOD9574707
_publ_section_title
;
Structure prediction by ZEFSAII (Michael W. Deem and Ramdas Pophale) SiO2 
 PCOD9574707
Probable space group: R 3
;
_chemical_formula_sum "Si O2"
_cell_formula_units_Z 42
_cell_length_a 14.092100
_cell_length_b 14.092100
_cell_length_c 12.210262
_cell_angle_alpha 90.000000
_cell_angle_beta 90.000000
_cell_angle_gamma 120.000000
_cell_volume 2099.940779
_symmetry_space_group_name_H-M "R 3"
_symmetry_group_IT_number 146
_symmetry_cell_setting 'hexagonal'
loop_
_space_group_symop_operation_xyz
x,y,z
-y,x-y,z
-x+y,-x,z
2/3+x,1/3+y,1/3+z
2/3-y,1/3+x-y,1/3+z
2/3-x+y,1/3-x,1/3+z
1/3+x,2/3+y,2/3+z
1/3-y,2/3+x-y,2/3+z
1/3-x+y,2/3-x,2/3+z
loop_
_atom_site_type_symbol
_atom_site_label
_atom_site_fract_x
_atom_site_fract_y
_atom_site_fract_z
Si Si1 0.574821 0.737484 0.109360
Si Si2 0.220468 0.799797 0.648348
Si Si3 0.000000 0.000000 0.697868
Si Si4 0.795687 0.944802 0.549226
Si Si5 0.318575 0.063373 0.206825
Si Si6 0.000000 0.000000 0.958974
O O1 0.470786 0.619882 0.140078
O O2 0.554582 0.831823 0.152310
O O3 0.673609 0.738192 0.175451
O O4 0.598000 0.746380 0.981067
O O5 0.113396 0.783400 0.586015
O O6 0.217670 0.853026 0.764353
O O7 0.245248 0.701475 0.663472
O O8 0.322956 0.890915 0.575831
O O9 0.089908 0.118290 0.649192
O O10 0.000000 0.000000 0.827480
#
# Coordination Sequence:
#
# PCOD9574707 Si02
#       6
#     9   9   3   9   9   3
#     4   9  18  34  59  85 111 145 186 232 279 329
#     4  10  21  38  57  80 114 153 189 231 281 334
#     4   9  18  36  58  83 109 144 189 231 280 341
#     4   9  18  34  60  86 109 144 190 232 276 336
#     4   9  19  38  57  79 114 151 184 229 283 331
#     4  12  24  36  55  83 115 153 192 237 283 329
#
# _framework density 20.000561999999999
#
# number of rings (size 3 to 8) (size 9 to 14) (size 15 to 20)
#    0.000    2.571    0.000    1.714    0.000    6.857 
#    0.000   12.857    0.000    2.571    0.000    0.000 
#    0.000    0.000    0.000    0.000    0.000    0.000 
#
# Total GULP energy -78157.982563 kJ/mol
# GULP energy per Si atom -5582.713040 kJ/mol
# Density = 1.995504 g / cm^3
# Si number density = 20.000562 Si / 1000 Ang^3
#
#
#
# Elastic Constant Matrix: (Units=GPa)
#
#
# Indices 1 2 3 4 5 6 
#
# 1 71.8865 35.7294 22.3883 7.3633 -5.3793 0.0000
# 2 35.7294 71.8865 22.3883 -7.3633 5.3793 0.0000
# 3 22.3883 22.3883 82.1533 0.0000 0.0000 0.0000
# 4 7.3633 -7.3633 0.0000 17.9229 0.0000 5.3793
# 5 -5.3793 5.3793 0.0000 0.0000 17.9229 7.3633
# 6 0.0000 0.0000 0.0000 5.3793 7.3633 18.0786
#
#
#
# Elastic Compliance Matrix: (Units=1/GPa)
#
#
# Indices 1 2 3 4 5 6 
#
# 1 0.023843 -0.013362 -0.002856 -0.015285 0.011167 0.000000
# 2 -0.013362 0.023843 -0.002856 0.015285 -0.011167 0.000000
# 3 -0.002856 -0.002856 0.013729 0.000000 0.000000 0.000000
# 4 -0.015285 0.015285 0.000000 0.075057 0.000000 -0.022333
# 5 0.011167 -0.011167 0.000000 0.000000 0.075057 -0.030570
# 6 0.000000 0.000000 0.000000 -0.022333 -0.030570 0.074411
#
#
# Mechanical properties :
#
#
# Convention : Reuss Voigt Hill
#
# Bulk Modulus (GPa) = 42.98162 42.99314 42.98738
# Shear Modulus (GPa) = 15.06734 20.47955 17.77345
#
# Velocity S-wave (km/s) = 2.74769 3.20339 2.98425
# Velocity P-wave (km/s) = 5.62168 5.93506 5.78049
#
# Compressibility (1/GPa) = 0.02326576
#
# Stress axis : x y z
#
# Youngs Moduli (GPa) = 41.94107 41.94107 72.83798
#
# Poissons Ratio (x) = 0.56043 0.20804
# Poissons Ratio (y) = 0.56043 0.20804
# Poissons Ratio (z) = 0.11979 0.11979
#
# Static dielectric constant tensor:
#      x y z
#    x 1.716490 0.000000 0.000000 
#    y 0.000000 1.716490 0.000000 
#    z 0.000000 0.000000 1.679560 
# 
# From -- ./inp_files/1051.got.cif
#   From: 2010.05.17/outbox.cif.g08.bks.cpg/sg146_cif.got.tgz:1051.got - 2010.05.20 13:48:23.
