data_PCOD9574267
_publ_section_title
;
Structure prediction by ZEFSAII (Michael W. Deem and Ramdas Pophale) SiO2 
 PCOD9574267
Probable space group: P 3
;
_chemical_formula_sum "Si O2"
_cell_formula_units_Z 18
_cell_length_a 13.263153
_cell_length_b 13.263153
_cell_length_c 7.553810
_cell_angle_alpha 90.000000
_cell_angle_beta 90.000000
_cell_angle_gamma 120.000000
_cell_volume 1150.774547
_symmetry_space_group_name_H-M "P 3"
_symmetry_group_IT_number 143
_symmetry_cell_setting 'hexagonal'
loop_
_space_group_symop_operation_xyz
x,y,z
-y,x-y,z
-x+y,-x,z
loop_
_atom_site_type_symbol
_atom_site_label
_atom_site_fract_x
_atom_site_fract_y
_atom_site_fract_z
Si Si1 0.999876 0.760275 0.066810
Si Si2 0.097336 0.431211 0.357859
Si Si3 0.239724 0.000123 0.066810
Si Si4 0.333875 0.431211 0.357859
Si Si5 0.333875 0.431211 0.775762
Si Si6 0.568789 0.666125 0.775762
O O1 0.877762 0.755525 0.066809
O O2 0.106716 0.893284 0.066811
O O3 0.018548 0.698007 0.236931
O O4 0.018549 0.698008 0.896690
O O5 0.018548 0.320541 0.236931
O O6 0.230170 0.460340 0.328847
O O7 0.085878 0.542939 0.311756
O O8 0.072517 0.406868 0.566810
O O9 0.301992 0.981450 0.896690
O O10 0.334352 0.406868 0.566810
O O11 0.457061 0.542939 0.821865
O O12 0.230171 0.460341 0.804773
#
# Coordination Sequence:
#
# PCOD9574267 Si02
#       6
#     3   3   3   3   3   3
#     4  10  20  32  46  66  94 128 162 192 222 262
#     4   9  17  30  50  75  98 118 144 185 238 288
#     4  10  20  32  46  66  94 128 162 192 222 262
#     4   9  17  30  50  75  98 118 144 185 238 288
#     4   9  17  30  50  75  98 118 144 185 238 288
#     4   9  17  30  50  75  98 118 144 185 238 288
#
# _framework density 15.641639
#
# number of rings (size 3 to 8) (size 9 to 14) (size 15 to 20)
#    0.000    2.667    0.000    2.000    0.000    4.000 
#    0.000    3.333    0.000    9.333    0.000    0.000 
#    0.000    0.000    0.000    0.000    0.000    0.000 
#
# Total GULP energy -100367.655729 kJ/mol
# GULP energy per Si atom -5575.980874 kJ/mol
# Density = 1.560604 g / cm^3
# Si number density = 15.641639 Si / 1000 Ang^3
#
#
#
# Elastic Constant Matrix: (Units=GPa)
#
#
# Indices 1 2 3 4 5 6 
#
# 1 133.3397 87.8252 72.5209 -0.0006 0.0000 0.0000
# 2 87.8252 133.3397 72.5209 0.0006 0.0000 0.0000
# 3 72.5209 72.5209 78.8087 0.0000 0.0000 0.0000
# 4 -0.0006 0.0006 0.0000 17.9400 0.0000 0.0000
# 5 0.0000 0.0000 0.0000 0.0000 17.9400 -0.0006
# 6 0.0000 0.0000 0.0000 0.0000 -0.0006 22.7573
#
#
#
# Elastic Compliance Matrix: (Units=1/GPa)
#
#
# Indices 1 2 3 4 5 6 
#
# 1 0.016687 -0.005284 -0.010493 0.000001 0.000000 0.000000
# 2 -0.005284 0.016687 -0.010493 -0.000001 0.000000 0.000000
# 3 -0.010493 -0.010493 0.032001 0.000000 0.000000 0.000000
# 4 0.000001 -0.000001 0.000000 0.055741 0.000000 0.000000
# 5 0.000000 0.000000 0.000000 0.000000 0.055741 0.000002
# 6 0.000000 0.000000 0.000000 0.000000 0.000002 0.043942
#
#
# Mechanical properties :
#
#
# Convention : Reuss Voigt Hill
#
# Bulk Modulus (GPa) = 77.91721 90.13582 84.02652
# Shear Modulus (GPa) = 18.01025 19.23550 18.62288
#
# Velocity S-wave (km/s) = 3.39695 3.51060 3.45425
# Velocity P-wave (km/s) = 8.08133 8.61296 8.35137
#
# Compressibility (1/GPa) = 0.01283414
#
# Stress axis : x y z
#
# Youngs Moduli (GPa) = 59.92661 59.92661 31.24880
#
# Poissons Ratio (x) = 0.31665 0.32790
# Poissons Ratio (y) = 0.31665 0.32790
# Poissons Ratio (z) = 0.62883 0.62883
#
# Static dielectric constant tensor:
#      x y z
#    x 1.490420 0.000000 0.000000 
#    y 0.000000 1.490420 0.000000 
#    z 0.000000 0.000000 1.545520 
# 
# From -- ./inp_files/156.got.cif
#   From: 2010.05.17/outbox.cif.g08.bks.cpg/sg143_cif.got.tgz:156.got - 2010.05.20 13:46:24.
