data_PCOD9574001
_publ_section_title
;
Structure prediction by ZEFSAII (Michael W. Deem and Ramdas Pophale) SiO2 
 PCOD9574001
Probable space group: I 41/A C D
;
_chemical_formula_sum "Si O2"
_cell_formula_units_Z 144
_cell_length_a 20.509124
_cell_length_b 20.509124
_cell_length_c 17.401874
_cell_angle_alpha 90.000000
_cell_angle_beta 90.000000
_cell_angle_gamma 90.000000
_cell_volume 7319.648760
_symmetry_space_group_name_H-M "I 41/A C D"
_symmetry_group_IT_number 142
_space_group.IT_coordinate_system_code '2'
_symmetry_cell_setting 'tetragonal'
loop_
_space_group_symop_operation_xyz
x,y,z
1/4-y,3/4+x,1/4+z
-x,1/2-y,z
1/4+y,1/4-x,3/4+z
x,-y,1/2-z
1/2-x,y,-z
3/4+y,1/4+x,1/4-z
1/4-y,1/4-x,1/4-z
-x,-y,-z
3/4+y,1/4-x,3/4-z
x,1/2+y,-z
3/4-y,3/4+x,1/4-z
-x,y,1/2+z
1/2+x,-y,z
1/4-y,3/4-x,3/4+z
3/4+y,3/4+x,3/4+z
1/2+x,1/2+y,1/2+z
3/4-y,1/4+x,3/4+z
1/2-x,-y,1/2+z
3/4+y,3/4-x,1/4+z
1/2+x,1/2-y,-z
-x,1/2+y,1/2-z
1/4+y,3/4+x,3/4-z
3/4-y,3/4-x,3/4-z
1/2-x,1/2-y,1/2-z
1/4+y,3/4-x,1/4-z
1/2+x,y,1/2-z
1/4-y,1/4+x,3/4-z
1/2-x,1/2+y,z
x,1/2-y,1/2+z
3/4-y,1/4-x,1/4+z
1/4+y,1/4+x,1/4+z
loop_
_atom_site_type_symbol
_atom_site_label
_atom_site_fract_x
_atom_site_fract_y
_atom_site_fract_z
Si Si1 0.479804 0.324833 0.950169
Si Si2 0.109119 0.158221 0.979410
Si Si3 0.373215 0.000000 0.250000
Si Si4 0.939324 0.374602 0.813860
Si Si5 0.250000 0.400803 0.500000
Si Si6 0.262310 0.012310 0.375000
O O1 0.500000 0.250000 0.962411
O O2 0.433314 0.316687 0.875000
O O3 0.552104 0.355803 0.956777
O O4 0.435694 0.346535 0.021072
O O5 0.082977 0.123157 0.902022
O O6 0.113558 0.234022 0.952216
O O7 0.181640 0.138081 0.005366
O O8 0.417410 0.060803 0.228955
O O9 0.325235 0.013227 0.321087
O O10 0.260044 0.448102 0.572672
#
# Coordination Sequence:
#
# PCOD9574001 Si02
#       6
#    32  32  16  32  16  16
#     4   9  20  36  61  95 125 164 204 260 326 391
#     4  11  21  39  66  97 130 169 213 265 337 391
#     4  11  23  42  62  90 121 171 228 262 324 386
#     4  11  21  37  65  94 131 167 207 269 326 392
#     4  11  23  42  64  90 129 171 222 272 324 384
#     4  10  24  42  64  80 120 182 218 264 324 394
#
# _framework density 19.673074
#
# number of rings (size 3 to 8) (size 9 to 14) (size 15 to 20)
#    0.000    1.556    4.444    0.667    1.556    3.556 
#    0.000    0.000    0.000    6.667    0.000    0.000 
#    0.000    0.000    0.000    0.000    0.000    0.000 
#
# Total GULP energy -400847.909067 kJ/mol
# GULP energy per Si atom -5567.332070 kJ/mol
# Density = 1.962830 g / cm^3
# Si number density = 19.673074 Si / 1000 Ang^3
#
#
#
# Elastic Constant Matrix: (Units=GPa)
#
#
# Indices 1 2 3 4 5 6 
#
# 1 43.6536 44.0238 22.5089 0.0000 0.0000 0.0000
# 2 44.0238 43.6512 22.5092 0.0000 0.0000 0.0000
# 3 22.5089 22.5092 100.8861 0.0000 0.0000 0.0000
# 4 0.0000 0.0000 0.0000 -17.9998 0.0000 0.0000
# 5 0.0000 0.0000 0.0000 0.0000 -17.9991 0.0000
# 6 0.0000 0.0000 0.0000 0.0000 0.0000 -41.7605
#
#
#
# Elastic Compliance Matrix: (Units=1/GPa)
#
#
# Indices 1 2 3 4 5 6 
#
# 1 -1.339753 1.352678 -0.002887 0.000000 0.000000 0.000000
# 2 1.352678 -1.339840 -0.002861 0.000000 0.000000 0.000000
# 3 -0.002887 -0.002861 0.011195 0.000000 0.000000 0.000000
# 4 0.000000 0.000000 0.000000 -0.055556 0.000000 0.000000
# 5 0.000000 0.000000 0.000000 0.000000 -0.055558 0.000000
# 6 0.000000 0.000000 0.000000 0.000000 0.000000 -0.023946
#
#
# Mechanical properties :
#
#
# Convention : Reuss Voigt Hill
#
# Bulk Modulus (GPa) = 39.27542 40.69721 39.98631
# Shear Modulus (GPa) = -0.91094 -8.94195 -4.92644
#
# Velocity S-wave (km/s) = -0.68121 -2.13428 -1.58417
# Velocity P-wave (km/s) = 4.40326 3.82860 4.12594
#
# Compressibility (1/GPa) = 0.02546122
#
# Stress axis : x y z
#
# Youngs Moduli (GPa) = -0.74641 -0.74636 89.32867
#
# Poissons Ratio (x) = 1.00958 0.25788
# Poissons Ratio (y) = 1.00965 0.25558
# Poissons Ratio (z) = -0.00215 -0.00214
#
# Static dielectric constant tensor:
#      x y z
#    x 1.711020 0.000000 0.000000 
#    y 0.000000 1.711020 0.000000 
#    z 0.000000 0.000000 2.034620 
# 
# From -- ./inp_files/7306.got.cif
#   From: 2010.05.17/outbox.cif.g08.bks.cpg/sg142_4_cif.got.tgz:7306.got - 2010.05.20 13:39:18.
