data_PCOD9574951
_publ_section_title
;
Structure prediction by ZEFSAII (Michael W. Deem and Ramdas Pophale) SiO2 
 PCOD9574951
Probable space group: P -3
;
_chemical_formula_sum "Si O2"
_cell_formula_units_Z 48
_cell_length_a 18.147297
_cell_length_b 18.147297
_cell_length_c 8.608445
_cell_angle_alpha 90.000000
_cell_angle_beta 90.000000
_cell_angle_gamma 120.000000
_cell_volume 2455.156805
_symmetry_space_group_name_H-M "P -3"
_symmetry_group_IT_number 147
_symmetry_cell_setting 'hexagonal'
loop_
_space_group_symop_operation_xyz
x,y,z
-y,x-y,z
-x+y,-x,z
-x,-y,-z
y,-x+y,-z
x-y,x,-z
loop_
_atom_site_type_symbol
_atom_site_label
_atom_site_fract_x
_atom_site_fract_y
_atom_site_fract_z
Si Si1 0.299972 0.443074 0.571932
Si Si2 0.132338 0.372905 0.410322
Si Si3 0.341196 0.243403 0.939771
Si Si4 0.593732 0.224124 0.217688
Si Si5 0.490891 0.416360 0.077434
Si Si6 0.707426 0.911914 0.823905
Si Si7 0.105374 0.916140 0.548392
Si Si8 0.586243 0.014414 0.425324
O O1 0.217450 0.437362 0.498737
O O2 0.365003 0.536049 0.637809
O O3 0.266494 0.373256 0.712242
O O4 0.342308 0.418362 0.433530
O O5 0.141354 0.365718 0.228397
O O6 0.100291 0.278357 0.476680
O O7 0.068667 0.405414 0.457816
O O8 0.262659 0.261080 0.910859
O O9 0.422350 0.330973 0.994251
O O10 0.319331 0.167164 0.059833
O O11 0.696478 0.273558 0.214979
O O12 0.570068 0.155974 0.082844
O O13 0.456274 0.404581 0.254359
O O14 0.500000 0.500000 0.000000
O O15 0.781489 0.917001 0.710900
O O16 0.017783 0.873088 0.449342
O O17 0.500000 0.000000 0.500000
#
# Coordination Sequence:
#
# PCOD9574951 Si02
#       8
#     6   6   6   6   6   6   6   6
#     4  11  22  43  67  95 129 179 233 285 337 405
#     4  11  23  43  66  98 131 180 235 284 338 411
#     4  12  25  42  65  99 140 179 225 282 357 415
#     4  10  22  42  67  92 131 176 221 273 342 407
#     4  12  25  43  69 101 139 183 225 283 349 412
#     4  11  25  41  66  97 140 178 232 286 346 415
#     4  11  22  42  68  95 131 180 234 287 344 413
#     4  12  23  43  70  98 132 176 237 286 334 408
#
# _framework density 19.550687
#
# number of rings (size 3 to 8) (size 9 to 14) (size 15 to 20)
#    0.250    0.500    3.750    5.375    3.500    0.000 
#    0.000    0.000    0.000    2.500    0.000    0.000 
#    0.000    0.000    0.000    0.000    0.000    0.000 
#
# Total GULP energy -267717.883381 kJ/mol
# GULP energy per Si atom -5577.455904 kJ/mol
# Density = 1.950619 g / cm^3
# Si number density = 19.550687 Si / 1000 Ang^3
#
#
#
# Elastic Constant Matrix: (Units=GPa)
#
#
# Indices 1 2 3 4 5 6 
#
# 1 96.2556 39.8822 26.0729 -0.6605 -8.0272 0.0000
# 2 39.8822 96.2556 26.0729 0.6605 8.0272 0.0000
# 3 26.0729 26.0729 59.8721 0.0000 0.0000 0.0000
# 4 -0.6605 0.6605 0.0000 33.1919 0.0000 8.0272
# 5 -8.0272 8.0272 0.0000 0.0000 33.1919 -0.6605
# 6 0.0000 0.0000 0.0000 8.0272 -0.6605 28.1867
#
#
#
# Elastic Compliance Matrix: (Units=1/GPa)
#
#
# Indices 1 2 3 4 5 6 
#
# 1 0.013938 -0.005122 -0.003839 0.000379 0.004610 0.000000
# 2 -0.005122 0.013938 -0.003839 -0.000379 -0.004610 0.000000
# 3 -0.003839 -0.003839 0.020046 0.000000 0.000000 0.000000
# 4 0.000379 -0.000379 0.000000 0.032373 0.000000 -0.009219
# 5 0.004610 -0.004610 0.000000 0.000000 0.032373 0.000759
# 6 0.000000 0.000000 0.000000 -0.009219 0.000759 0.038121
#
#
# Mechanical properties :
#
#
# Convention : Reuss Voigt Hill
#
# Bulk Modulus (GPa) = 44.80010 48.49325 46.64668
# Shear Modulus (GPa) = 27.19897 29.60445 28.40171
#
# Velocity S-wave (km/s) = 3.73393 3.89555 3.81559
# Velocity P-wave (km/s) = 6.44626 6.71501 6.58201
#
# Compressibility (1/GPa) = 0.02232138
#
# Stress axis : x y z
#
# Youngs Moduli (GPa) = 71.74482 71.74482 49.88523
#
# Poissons Ratio (x) = 0.36749 0.19152
# Poissons Ratio (y) = 0.36749 0.19152
# Poissons Ratio (z) = 0.27544 0.27544
#
# Static dielectric constant tensor:
#      x y z
#    x 1.715120 0.000000 0.000000 
#    y 0.000000 1.715120 0.000000 
#    z 0.000000 0.000000 1.660640 
# 
# From -- ./inp_files/688.got.cif
#   From: 2010.05.17/outbox.cif.g08.bks.cpg/sg147_cif.got.tgz:688.got - 2010.05.20 13:49:32.
