data_PCOD9574223
_publ_section_title
;
Structure prediction by ZEFSAII (Michael W. Deem and Ramdas Pophale) SiO2 
 PCOD9574223
Probable space group: I 41/A C D
;
_chemical_formula_sum "Si O2"
_cell_formula_units_Z 152
_cell_length_a 24.183303
_cell_length_b 24.183303
_cell_length_c 10.357473
_cell_angle_alpha 90.000000
_cell_angle_beta 90.000000
_cell_angle_gamma 90.000000
_cell_volume 6057.383141
_symmetry_space_group_name_H-M "I 41/A C D"
_symmetry_group_IT_number 142
_space_group.IT_coordinate_system_code '2'
_symmetry_cell_setting 'tetragonal'
loop_
_space_group_symop_operation_xyz
x,y,z
1/4-y,3/4+x,1/4+z
-x,1/2-y,z
1/4+y,1/4-x,3/4+z
x,-y,1/2-z
1/2-x,y,-z
3/4+y,1/4+x,1/4-z
1/4-y,1/4-x,1/4-z
-x,-y,-z
3/4+y,1/4-x,3/4-z
x,1/2+y,-z
3/4-y,3/4+x,1/4-z
-x,y,1/2+z
1/2+x,-y,z
1/4-y,3/4-x,3/4+z
3/4+y,3/4+x,3/4+z
1/2+x,1/2+y,1/2+z
3/4-y,1/4+x,3/4+z
1/2-x,-y,1/2+z
3/4+y,3/4-x,1/4+z
1/2+x,1/2-y,-z
-x,1/2+y,1/2-z
1/4+y,3/4+x,3/4-z
3/4-y,3/4-x,3/4-z
1/2-x,1/2-y,1/2-z
1/4+y,3/4-x,1/4-z
1/2+x,y,1/2-z
1/4-y,1/4+x,3/4-z
1/2-x,1/2+y,z
x,1/2-y,1/2+z
3/4-y,1/4-x,1/4+z
1/4+y,1/4+x,1/4+z
loop_
_atom_site_type_symbol
_atom_site_label
_atom_site_fract_x
_atom_site_fract_y
_atom_site_fract_z
Si Si1 0.485666 0.000000 0.750000
Si Si2 0.396746 0.778762 0.535678
Si Si3 0.650033 0.614122 0.399385
Si Si4 0.256180 0.146264 0.784520
Si Si5 0.000000 0.250000 0.875000
Si Si6 0.169184 0.317798 0.067860
O O1 0.449157 0.014801 0.873861
O O2 0.526753 0.050139 0.715973
O O3 0.431914 0.818087 0.625000
O O4 0.360545 0.824605 0.456902
O O5 0.441668 0.747880 0.448220
O O6 0.370933 0.729320 0.622441
O O7 0.629046 0.564123 0.489636
O O8 0.714826 0.607753 0.367882
O O9 0.615804 0.608356 0.265349
O O10 0.283695 0.338503 0.835834
#
# Coordination Sequence:
#
# PCOD9574223 Si02
#       6
#    16  32  32  32   8  32
#     4  12  24  44  78 110 146 190 256 322 382 476
#     4  12  27  43  71 112 158 198 248 313 396 479
#     4  12  27  49  78 110 152 204 267 324 392 470
#     4  12  28  48  80 111 153 207 263 329 401 466
#     4  12  26  44  68 114 160 200 230 324 404 462
#     4  12  25  46  78 109 146 199 256 318 384 473
#
# _framework density 25.093343999999998
#
# number of rings (size 3 to 8) (size 9 to 14) (size 15 to 20)
#    0.000    0.000    6.316    2.842    5.895    1.684 
#    0.000    0.000   18.526    0.000    0.000    0.000 
#    0.000    0.000    0.000    0.000    0.000    0.000 
#
# Total GULP energy -425018.857878 kJ/mol
# GULP energy per Si atom -5592.353393 kJ/mol
# Density = 2.503623 g / cm^3
# Si number density = 25.093344 Si / 1000 Ang^3
#
#
#
# Elastic Constant Matrix: (Units=GPa)
#
#
# Indices 1 2 3 4 5 6 
#
# 1 111.3881 46.9104 23.5380 0.0000 0.0000 0.0000
# 2 46.9104 111.3852 23.5347 0.0000 0.0000 0.0000
# 3 23.5380 23.5347 64.1531 0.0000 0.0000 0.0000
# 4 0.0000 0.0000 0.0000 42.9647 0.0000 0.0000
# 5 0.0000 0.0000 0.0000 0.0000 42.9635 0.0000
# 6 0.0000 0.0000 0.0000 0.0000 0.0000 52.1140
#
#
#
# Elastic Compliance Matrix: (Units=1/GPa)
#
#
# Indices 1 2 3 4 5 6 
#
# 1 0.011300 -0.004209 -0.002602 0.000000 0.000000 0.000000
# 2 -0.004209 0.011300 -0.002601 0.000000 0.000000 0.000000
# 3 -0.002602 -0.002601 0.017497 0.000000 0.000000 0.000000
# 4 0.000000 0.000000 0.000000 0.023275 0.000000 0.000000
# 5 0.000000 0.000000 0.000000 0.000000 0.023276 0.000000
# 6 0.000000 0.000000 0.000000 0.000000 0.000000 0.019189
#
#
# Mechanical properties :
#
#
# Convention : Reuss Voigt Hill
#
# Bulk Modulus (GPa) = 47.00939 52.76582 49.88761
# Shear Modulus (GPa) = 37.95023 40.47134 39.21078
#
# Velocity S-wave (km/s) = 3.89313 4.02036 3.95726
# Velocity P-wave (km/s) = 6.24364 6.52875 6.38779
#
# Compressibility (1/GPa) = 0.02127235
#
# Stress axis : x y z
#
# Youngs Moduli (GPa) = 88.49417 88.49372 57.15415
#
# Poissons Ratio (x) = 0.37250 0.14871
# Poissons Ratio (y) = 0.37250 0.14866
# Poissons Ratio (z) = 0.23025 0.23018
#
# Static dielectric constant tensor:
#      x y z
#    x 2.143630 0.000000 0.000000 
#    y 0.000000 2.143500 0.000000 
#    z 0.000000 0.000000 2.116790 
# 
# From -- ./inp_files/5663.got.cif
#   From: 2010.05.17/outbox.cif.g08.bks.cpg/sg142_3_cif.got.tgz:5663.got - 2010.05.20 13:39:18.
