data_PCOD9574631
_publ_section_title
;
Structure prediction by ZEFSAII (Michael W. Deem and Ramdas Pophale) SiO2 
 PCOD9574631
Probable space group: P 32
;
_chemical_formula_sum "Si O2"
_cell_formula_units_Z 24
_cell_length_a 14.149809
_cell_length_b 14.149809
_cell_length_c 5.631617
_cell_angle_alpha 90.000000
_cell_angle_beta 90.000000
_cell_angle_gamma 120.000000
_cell_volume 976.483475
_symmetry_space_group_name_H-M "P 32"
_symmetry_group_IT_number 145
_symmetry_cell_setting 'hexagonal'
loop_
_space_group_symop_operation_xyz
x,y,z
-y,x-y,2/3+z
-x+y,-x,1/3+z
loop_
_atom_site_type_symbol
_atom_site_label
_atom_site_fract_x
_atom_site_fract_y
_atom_site_fract_z
Si Si1 0.559349 0.332000 0.372040
Si Si2 0.559026 0.959686 0.993834
Si Si3 0.541141 0.979966 0.491198
Si Si4 0.056475 0.942331 0.456849
Si Si5 0.427091 0.101326 0.535740
Si Si6 0.157174 0.266491 0.480634
Si Si7 0.716530 0.690728 0.359389
Si Si8 0.791212 0.051220 0.511295
O O1 0.589819 0.269788 0.160042
O O2 0.481980 0.386592 0.315975
O O3 0.475877 0.230523 0.539230
O O4 0.491139 0.924832 0.238917
O O5 0.640038 0.910418 0.037530
O O6 0.501624 0.918242 0.740391
O O7 0.529159 0.085465 0.492219
O O8 0.668826 0.022933 0.487475
O O9 0.137801 0.951464 0.661166
O O10 0.945967 0.923629 0.578180
O O11 0.033523 0.828947 0.354548
O O12 0.382440 0.042668 0.789686
O O13 0.352921 0.049524 0.298672
O O14 0.195751 0.185020 0.594998
O O15 0.097797 0.305674 0.668821
O O16 0.836222 0.710031 0.295610
#
# Coordination Sequence:
#
# PCOD9574631 Si02
#       8
#     3   3   3   3   3   3   3   3
#     4  12  26  41  70 104 153 203 256 304 386 462
#     4  11  23  43  68 100 138 195 247 301 366 458
#     4  11  22  44  66  93 139 190 239 298 370 441
#     4  12  23  38  61  97 138 185 245 296 366 442
#     4  12  27  44  66 102 148 194 253 312 373 459
#     4  11  25  44  68  96 144 199 253 310 378 446
#     4  12  28  44  70 103 148 196 252 317 376 460
#     4  11  24  42  69  95 140 194 243 300 381 458
#
# _framework density 24.577987
#
# number of rings (size 3 to 8) (size 9 to 14) (size 15 to 20)
#    0.000    0.500    2.500    6.750    7.000    0.000 
#    0.000    0.000    0.000    0.000    0.000    0.000 
#   82.500    0.000    0.000    0.000    0.000    0.000 
#
# Total GULP energy -133607.280770 kJ/mol
# GULP energy per Si atom -5566.970032 kJ/mol
# Density = 2.452205 g / cm^3
# Si number density = 24.577987 Si / 1000 Ang^3
#
#
#
# Elastic Constant Matrix: (Units=GPa)
#
#
# Indices 1 2 3 4 5 6 
#
# 1 58.9383 14.1337 19.8471 -4.8218 -0.2181 0.0000
# 2 14.1337 58.9383 19.8471 4.8218 0.2181 0.0000
# 3 19.8471 19.8471 147.6572 0.0000 0.0000 0.0000
# 4 -4.8218 4.8218 0.0000 28.4941 0.0000 0.2181
# 5 -0.2181 0.2181 0.0000 0.0000 28.4941 -4.8218
# 6 0.0000 0.0000 0.0000 0.2181 -4.8218 22.4023
#
#
#
# Elastic Compliance Matrix: (Units=1/GPa)
#
#
# Indices 1 2 3 4 5 6 
#
# 1 0.018964 -0.004201 -0.001984 0.003920 0.000177 0.000000
# 2 -0.004201 0.018964 -0.001984 -0.003920 -0.000177 0.000000
# 3 -0.001984 -0.001984 0.007306 0.000000 0.000000 0.000000
# 4 0.003920 -0.003920 0.000000 0.036424 0.000000 -0.000355
# 5 0.000177 -0.000177 0.000000 0.000000 0.036424 0.007840
# 6 0.000000 0.000000 0.000000 -0.000355 0.007840 0.046329
#
#
# Mechanical properties :
#
#
# Convention : Reuss Voigt Hill
#
# Bulk Modulus (GPa) = 34.60853 41.46553 38.03703
# Shear Modulus (GPa) = 26.26298 29.99180 28.12739
#
# Velocity S-wave (km/s) = 3.27243 3.49703 3.38659
# Velocity P-wave (km/s) = 5.32823 5.76309 5.54992
#
# Compressibility (1/GPa) = 0.02889461
#
# Stress axis : x y z
#
# Youngs Moduli (GPa) = 52.73193 52.73193 136.87576
#
# Poissons Ratio (x) = 0.22151 0.27161
# Poissons Ratio (y) = 0.22151 0.27161
# Poissons Ratio (z) = 0.10464 0.10464
#
# Static dielectric constant tensor:
#      x y z
#    x 1.965030 0.000000 0.000000 
#    y 0.000000 1.965030 0.000000 
#    z 0.000000 0.000000 2.250420 
# 
# From -- ./inp_files/173.got.cif
#   From: 2010.05.17/outbox.cif.g08.bks.cpg/sg145_cif.got.tgz:173.got - 2010.05.20 13:47:28.
