data_PCOD9574249
_publ_section_title
;
Structure prediction by ZEFSAII (Michael W. Deem and Ramdas Pophale) SiO2 
 PCOD9574249
Probable space group: I 41/A C D
;
_chemical_formula_sum "Si O2"
_cell_formula_units_Z 88
_cell_length_a 24.000000
_cell_length_b 24.000000
_cell_length_c 15.000000
_cell_angle_alpha 90.000000
_cell_angle_beta 90.000000
_cell_angle_gamma 90.000000
_cell_volume 8640.000000
_symmetry_space_group_name_H-M "I 41/A C D"
_symmetry_group_IT_number 142
_space_group.IT_coordinate_system_code '2'
_symmetry_cell_setting 'tetragonal'
loop_
_space_group_symop_operation_xyz
x,y,z
1/4-y,3/4+x,1/4+z
-x,1/2-y,z
1/4+y,1/4-x,3/4+z
x,-y,1/2-z
1/2-x,y,-z
3/4+y,1/4+x,1/4-z
1/4-y,1/4-x,1/4-z
-x,-y,-z
3/4+y,1/4-x,3/4-z
x,1/2+y,-z
3/4-y,3/4+x,1/4-z
-x,y,1/2+z
1/2+x,-y,z
1/4-y,3/4-x,3/4+z
3/4+y,3/4+x,3/4+z
1/2+x,1/2+y,1/2+z
3/4-y,1/4+x,3/4+z
1/2-x,-y,1/2+z
3/4+y,3/4-x,1/4+z
1/2+x,1/2-y,-z
-x,1/2+y,1/2-z
1/4+y,3/4+x,3/4-z
3/4-y,3/4-x,3/4-z
1/2-x,1/2-y,1/2-z
1/4+y,3/4-x,1/4-z
1/2+x,y,1/2-z
1/4-y,1/4+x,3/4-z
1/2-x,1/2+y,z
x,1/2-y,1/2+z
3/4-y,1/4-x,1/4+z
1/4+y,1/4+x,1/4+z
loop_
_atom_site_type_symbol
_atom_site_label
_atom_site_fract_x
_atom_site_fract_y
_atom_site_fract_z
Si Si1 0.968317 0.078528 0.990187
Si Si2 0.649144 0.436877 0.786471
Si Si3 0.520237 0.902365 0.180074
Si Si4 0.083029 0.780811 0.600621
Si Si5 0.219920 0.161088 0.309877
Si Si6 0.250000 0.809964 0.000000
O O1 0.991669 0.105611 0.082931
O O2 0.923233 0.029593 0.010381
O O3 0.944460 0.119399 0.914729
O O4 0.026235 0.055079 0.949407
O O5 0.647479 0.500000 0.750000
O O6 0.686106 0.436106 0.875000
O O7 0.585541 0.420989 0.817769
O O8 0.678753 0.387477 0.726905
O O9 0.520260 0.851676 0.249611
O O10 0.481504 0.950204 0.222389
O O11 0.028377 0.817904 0.605709
O O12 0.232965 0.154039 0.414306
#
# Coordination Sequence:
#
# PCOD9574249 Si02
#       6
#    32  32  32  32  32  16
#     4  10  21  41  67  95 128 170 232 273 327 403
#     4  12  26  43  68 100 134 180 224 284 342 398
#     4  11  22  39  67  97 127 175 222 270 332 404
#     4  11  25  40  61  97 134 169 209 276 344 396
#     4  10  21  40  66  98 129 171 228 275 327 398
#     4  10  20  40  68  96 124 176 224 278 316 410
#
# _framework density 10.185185000000001
#
# number of rings (size 3 to 8) (size 9 to 14) (size 15 to 20)
#    0.000    1.273    4.545    1.091    2.545    0.727 
#    1.636    1.818    4.000    0.000    0.000    0.000 
#    0.000    0.000    0.000    0.000    0.000    0.000 
#
# Total GULP energy -491137.128266 kJ/mol
# GULP energy per Si atom -5581.103730 kJ/mol
# Density = 1.016200 g / cm^3
# Si number density = 10.185185 Si / 1000 Ang^3
#
#
#
# Elastic Constant Matrix: (Units=GPa)
#
#
# Indices 1 2 3 4 5 6 
#
# 1 55.8197 0.7417 -5.1859 0.0000 0.0000 0.0000
# 2 0.7417 55.8197 -5.1859 0.0000 0.0000 0.0000
# 3 -5.1859 -5.1859 68.2456 0.0000 0.0000 0.0000
# 4 0.0000 0.0000 0.0000 30.0397 0.0000 0.0000
# 5 0.0000 0.0000 0.0000 0.0000 30.0397 0.0000
# 6 0.0000 0.0000 0.0000 0.0000 0.0000 23.3647
#
#
#
# Elastic Compliance Matrix: (Units=1/GPa)
#
#
# Indices 1 2 3 4 5 6 
#
# 1 0.018043 -0.000113 0.001362 0.000000 0.000000 0.000000
# 2 -0.000113 0.018043 0.001362 0.000000 0.000000 0.000000
# 3 0.001362 0.001362 0.014860 0.000000 0.000000 0.000000
# 4 0.000000 0.000000 0.000000 0.033289 0.000000 0.000000
# 5 0.000000 0.000000 0.000000 0.000000 0.033289 0.000000
# 6 0.000000 0.000000 0.000000 0.000000 0.000000 0.042800
#
#
# Mechanical properties :
#
#
# Convention : Reuss Voigt Hill
#
# Bulk Modulus (GPa) = 17.80331 17.84720 17.82526
# Shear Modulus (GPa) = 28.76479 29.32317 29.04398
#
# Velocity S-wave (km/s) = 3.76186 3.79819 3.78007
# Velocity P-wave (km/s) = 5.25619 5.29296 5.27460
#
# Compressibility (1/GPa) = 0.05616933
#
# Stress axis : x y z
#
# Youngs Moduli (GPa) = 55.42345 55.42345 67.29464
#
# Poissons Ratio (x) = 0.00627 -0.09169
# Poissons Ratio (y) = 0.00627 -0.09169
# Poissons Ratio (z) = -0.07551 -0.07551
#
# Static dielectric constant tensor:
#      x y z
#    x 1.734410 0.000000 0.000000 
#    y 0.000000 1.734410 0.000000 
#    z 0.000000 0.000000 1.788180 
# 
# From -- ./inp_files/5576.got.cif
#   From: 2010.05.17/outbox.ucp.g08.bks.cvg/sg142_3_cif.got.tgz:5576.got - 2010.06.11 11:43:53.
