data_PCOD9574073
_publ_section_title
;
Structure prediction by ZEFSAII (Michael W. Deem and Ramdas Pophale) SiO2 
 PCOD9574073
Probable space group: I 41/A C D
;
_chemical_formula_sum "Si O2"
_cell_formula_units_Z 160
_cell_length_a 21.449598
_cell_length_b 21.449598
_cell_length_c 18.040804
_cell_angle_alpha 90.000000
_cell_angle_beta 90.000000
_cell_angle_gamma 90.000000
_cell_volume 8300.307897
_symmetry_space_group_name_H-M "I 41/A C D"
_symmetry_group_IT_number 142
_space_group.IT_coordinate_system_code '2'
_symmetry_cell_setting 'tetragonal'
loop_
_space_group_symop_operation_xyz
x,y,z
1/4-y,3/4+x,1/4+z
-x,1/2-y,z
1/4+y,1/4-x,3/4+z
x,-y,1/2-z
1/2-x,y,-z
3/4+y,1/4+x,1/4-z
1/4-y,1/4-x,1/4-z
-x,-y,-z
3/4+y,1/4-x,3/4-z
x,1/2+y,-z
3/4-y,3/4+x,1/4-z
-x,y,1/2+z
1/2+x,-y,z
1/4-y,3/4-x,3/4+z
3/4+y,3/4+x,3/4+z
1/2+x,1/2+y,1/2+z
3/4-y,1/4+x,3/4+z
1/2-x,-y,1/2+z
3/4+y,3/4-x,1/4+z
1/2+x,1/2-y,-z
-x,1/2+y,1/2-z
1/4+y,3/4+x,3/4-z
3/4-y,3/4-x,3/4-z
1/2-x,1/2-y,1/2-z
1/4+y,3/4-x,1/4-z
1/2+x,y,1/2-z
1/4-y,1/4+x,3/4-z
1/2-x,1/2+y,z
x,1/2-y,1/2+z
3/4-y,1/4-x,1/4+z
1/4+y,1/4+x,1/4+z
loop_
_atom_site_type_symbol
_atom_site_label
_atom_site_fract_x
_atom_site_fract_y
_atom_site_fract_z
Si Si1 0.097138 0.464015 0.910042
Si Si2 0.651838 0.697951 0.611222
Si Si3 0.632300 0.542523 0.320759
Si Si4 0.999060 0.431763 0.788931
Si Si5 0.584890 0.570670 0.083012
O O1 0.090626 0.536869 0.888362
O O2 0.165209 0.435337 0.892670
O O3 0.040273 0.434585 0.862627
O O4 0.091526 0.444584 0.996163
O O5 0.591015 0.658986 0.625000
O O6 0.647278 0.713140 0.524079
O O7 0.658902 0.764487 0.650903
O O8 0.653048 0.500000 0.250000
O O9 0.573155 0.586146 0.298295
O O10 0.601584 0.494274 0.377327
O O11 0.994571 0.500000 0.750000
O O12 0.630177 0.619824 0.125000
#
# Coordination Sequence:
#
# PCOD9574073 Si02
#       5
#    32  32  32  32  32
#     4  11  23  37  65  94 117 162 209 248 307 373
#     4  11  24  41  60  92 128 159 201 258 312 360
#     4  11  20  41  64  87 127 163 202 256 307 359
#     4   9  19  40  60  83 123 165 193 248 311 355
#     4  12  23  41  65  90 121 167 213 247 302 368
#
# _framework density 19.276395000000001
#
# number of rings (size 3 to 8) (size 9 to 14) (size 15 to 20)
#    0.000    1.200    8.000    0.600    2.800    1.200 
#    0.000    0.000    0.000    3.000    0.000    0.000 
#    0.000    0.000    0.000    0.000    0.000    0.000 
#
# Total GULP energy -445748.230454 kJ/mol
# GULP energy per Si atom -5571.852881 kJ/mol
# Density = 1.923252 g / cm^3
# Si number density = 19.276395 Si / 1000 Ang^3
#
#
#
# Elastic Constant Matrix: (Units=GPa)
#
#
# Indices 1 2 3 4 5 6 
#
# 1 63.5863 62.1223 26.3941 0.0000 0.0000 0.0000
# 2 62.1223 63.5769 26.3926 0.0000 0.0000 0.0000
# 3 26.3941 26.3926 93.5275 0.0000 0.0000 0.0000
# 4 0.0000 0.0000 0.0000 17.3816 0.0000 0.0000
# 5 0.0000 0.0000 0.0000 0.0000 17.3884 0.0000
# 6 0.0000 0.0000 0.0000 0.0000 0.0000 3.3641
#
#
#
# Elastic Compliance Matrix: (Units=1/GPa)
#
#
# Indices 1 2 3 4 5 6 
#
# 1 0.347120 -0.338121 -0.002545 0.000000 0.000000 0.000000
# 2 -0.338121 0.347172 -0.002548 0.000000 0.000000 0.000000
# 3 -0.002545 -0.002548 0.012129 0.000000 0.000000 0.000000
# 4 0.000000 0.000000 0.000000 0.057532 0.000000 0.000000
# 5 0.000000 0.000000 0.000000 0.000000 0.057510 0.000000
# 6 0.000000 0.000000 0.000000 0.000000 0.000000 0.297259
#
#
# Mechanical properties :
#
#
# Convention : Reuss Voigt Hill
#
# Bulk Modulus (GPa) = 50.02065 50.05652 50.03858
# Shear Modulus (GPa) = 2.75966 14.67893 8.71930
#
# Velocity S-wave (km/s) = 1.19780 2.76252 2.12911
# Velocity P-wave (km/s) = 5.28379 6.01660 5.66207
#
# Compressibility (1/GPa) = 0.01999175
#
# Stress axis : x y z
#
# Youngs Moduli (GPa) = 2.88085 2.88042 82.44417
#
# Poissons Ratio (x) = 0.97393 0.20982
# Poissons Ratio (y) = 0.97408 0.21011
# Poissons Ratio (z) = 0.00733 0.00734
#
# Static dielectric constant tensor:
#      x y z
#    x 1.707030 0.000000 0.000000 
#    y 0.000000 1.707030 0.000000 
#    z 0.000000 0.000000 1.837470 
# 
# From -- ./inp_files/7347.got.cif
#   From: 2010.05.17/outbox.cif.g08.bks.cpg/sg142_4_cif.got.tgz:7347.got - 2010.05.20 13:39:18.
