data_PCOD9574613
_publ_section_title
;
Structure prediction by ZEFSAII (Michael W. Deem and Ramdas Pophale) SiO2 
 PCOD9574613
Probable space group: P 32
;
_chemical_formula_sum "Si O2"
_cell_formula_units_Z 24
_cell_length_a 7.835069
_cell_length_b 7.835069
_cell_length_c 16.078564
_cell_angle_alpha 90.000000
_cell_angle_beta 90.000000
_cell_angle_gamma 120.000000
_cell_volume 854.798086
_symmetry_space_group_name_H-M "P 32"
_symmetry_group_IT_number 145
_symmetry_cell_setting 'hexagonal'
loop_
_space_group_symop_operation_xyz
x,y,z
-y,x-y,2/3+z
-x+y,-x,1/3+z
loop_
_atom_site_type_symbol
_atom_site_label
_atom_site_fract_x
_atom_site_fract_y
_atom_site_fract_z
Si Si1 0.759393 0.194191 0.223680
Si Si2 0.399046 0.639143 0.771668
Si Si3 0.986714 0.746371 0.618389
Si Si4 0.094099 0.994872 0.873538
Si Si5 0.887735 0.612489 0.076818
Si Si6 0.995740 0.388214 0.668275
Si Si7 0.818327 0.530134 0.463480
Si Si8 0.421186 0.879579 0.622494
O O1 0.723664 0.086289 0.312188
O O2 0.566561 0.177569 0.182432
O O3 0.899645 0.423987 0.252351
O O4 0.853620 0.076880 0.176253
O O5 0.503797 0.508446 0.762168
O O6 0.493071 0.817790 0.704650
O O7 0.366598 0.626196 0.872733
O O8 0.190394 0.507941 0.723885
O O9 0.899667 0.531093 0.660043
O O10 0.987380 0.678019 0.523476
O O11 0.210118 0.854427 0.649378
O O12 0.927190 0.912461 0.604183
O O13 0.193723 0.152437 0.799518
O O14 0.270428 0.976080 0.917569
O O15 0.660416 0.481844 0.099749
O O16 0.846857 0.204237 0.720924
#
# Coordination Sequence:
#
# PCOD9574613 Si02
#       8
#     3   3   3   3   3   3   3   3
#     4  11  26  47  72 104 144 201 246 317 395 465
#     4  11  24  46  74 110 150 196 257 316 394 464
#     4  10  24  47  71 107 146 197 256 313 394 470
#     4  11  25  49  73 103 152 197 265 313 401 474
#     4  12  25  45  73 104 150 198 248 322 397 466
#     4  11  24  46  72 108 148 200 254 326 389 479
#     4  12  25  45  71 106 150 187 258 312 395 471
#     4  10  25  47  72 112 146 196 254 313 387 477
#
# _framework density 28.076806000000001
#
# number of rings (size 3 to 8) (size 9 to 14) (size 15 to 20)
#    0.000    1.000    3.750    1.500    3.500    3.000 
#    4.500    0.000    0.000    0.000    0.000    0.000 
#    0.000    0.000    0.000    0.000    0.000    0.000 
#
# Total GULP energy -134007.256585 kJ/mol
# GULP energy per Si atom -5583.635691 kJ/mol
# Density = 2.801290 g / cm^3
# Si number density = 28.076806 Si / 1000 Ang^3
#
#
#
# Elastic Constant Matrix: (Units=GPa)
#
#
# Indices 1 2 3 4 5 6 
#
# 1 98.5254 16.8793 21.9174 3.4690 -0.1304 0.0000
# 2 16.8793 98.5254 21.9174 -3.4690 0.1304 0.0000
# 3 21.9174 21.9174 121.7430 0.0000 0.0000 0.0000
# 4 3.4690 -3.4690 0.0000 46.7211 0.0000 0.1304
# 5 -0.1304 0.1304 0.0000 0.0000 46.7211 3.4690
# 6 0.0000 0.0000 0.0000 0.1304 3.4690 40.8231
#
#
#
# Elastic Compliance Matrix: (Units=1/GPa)
#
#
# Indices 1 2 3 4 5 6 
#
# 1 0.010814 -0.001512 -0.001674 -0.000915 0.000034 0.000000
# 2 -0.001512 0.010814 -0.001674 0.000915 -0.000034 0.000000
# 3 -0.001674 -0.001674 0.008817 0.000000 0.000000 0.000000
# 4 -0.000915 0.000915 0.000000 0.021540 0.000000 -0.000069
# 5 0.000034 -0.000034 0.000000 0.000000 0.021540 -0.001830
# 6 0.000000 0.000000 0.000000 -0.000069 -0.001830 0.024652
#
#
# Mechanical properties :
#
#
# Convention : Reuss Voigt Hill
#
# Bulk Modulus (GPa) = 48.25941 48.91355 48.58648
# Shear Modulus (GPa) = 43.55215 44.05836 43.80526
#
# Velocity S-wave (km/s) = 3.94277 3.96562 3.95421
# Velocity P-wave (km/s) = 6.16060 6.19898 6.17982
#
# Compressibility (1/GPa) = 0.02072135
#
# Stress axis : x y z
#
# Youngs Moduli (GPa) = 92.47681 92.47681 113.41797
#
# Poissons Ratio (x) = 0.13986 0.18992
# Poissons Ratio (y) = 0.13986 0.18992
# Poissons Ratio (z) = 0.15485 0.15485
#
# Static dielectric constant tensor:
#      x y z
#    x 2.226800 0.000000 0.000000 
#    y 0.000000 2.226800 0.000000 
#    z 0.000000 0.000000 2.229930 
# 
# From -- ./inp_files/839.got.cif
#   From: 2010.05.17/outbox.cif.g08.bks.cpg/sg145_cif.got.tgz:839.got - 2010.05.20 13:47:28.
