data_PCOD9574573
_publ_section_title
;
Structure prediction by ZEFSAII (Michael W. Deem and Ramdas Pophale) SiO2 
 PCOD9574573
Probable space group: P 32
;
_chemical_formula_sum "Si O2"
_cell_formula_units_Z 24
_cell_length_a 15.588853
_cell_length_b 15.588853
_cell_length_c 5.136741
_cell_angle_alpha 90.000000
_cell_angle_beta 90.000000
_cell_angle_gamma 120.000000
_cell_volume 1081.052098
_symmetry_space_group_name_H-M "P 32"
_symmetry_group_IT_number 145
_symmetry_cell_setting 'hexagonal'
loop_
_space_group_symop_operation_xyz
x,y,z
-y,x-y,2/3+z
-x+y,-x,1/3+z
loop_
_atom_site_type_symbol
_atom_site_label
_atom_site_fract_x
_atom_site_fract_y
_atom_site_fract_z
Si Si1 0.694531 0.937297 0.229130
Si Si2 0.964550 0.639277 0.391817
Si Si3 0.761571 0.757461 0.785091
Si Si4 0.059614 0.109894 0.806532
Si Si5 0.486022 0.048591 0.864575
Si Si6 0.089186 0.362234 0.613375
Si Si7 0.757003 0.332205 0.249254
Si Si8 0.757967 0.577458 0.533769
O O1 0.799894 0.955281 0.339048
O O2 0.621887 0.818585 0.222835
O O3 0.654743 0.983042 0.446611
O O4 0.706992 0.982287 0.942480
O O5 0.965924 0.546076 0.525401
O O6 0.852085 0.614523 0.349167
O O7 0.845211 0.865658 0.697270
O O8 0.672321 0.735028 0.579787
O O9 0.785502 0.671695 0.715823
O O10 0.728051 0.748388 0.082311
O O11 0.970428 0.051638 0.604418
O O12 0.512676 0.126231 0.628443
O O13 0.384965 0.943703 0.869573
O O14 0.461833 0.111705 0.074735
O O15 0.684552 0.275985 0.484800
O O16 0.737304 0.250806 0.033551
#
# Coordination Sequence:
#
# PCOD9574573 Si02
#       8
#     3   3   3   3   3   3   3   3
#     4  11  27  46  66 101 141 183 227 293 353 402
#     4  12  27  43  71 102 144 179 228 289 344 407
#     4  10  22  39  64  91 126 176 231 277 326 404
#     4  11  26  40  65  94 136 185 235 284 341 410
#     4  11  25  44  68 100 130 187 235 279 345 417
#     4  10  22  45  70  91 130 175 232 283 337 410
#     4  12  23  39  61  96 143 179 229 279 337 404
#     4  11  24  40  65  95 138 184 227 272 339 410
#
# _framework density 22.200595
#
# number of rings (size 3 to 8) (size 9 to 14) (size 15 to 20)
#    0.000    1.000    1.250    5.250   12.250    0.000 
#    0.000    0.000    0.000    1.500    0.000    0.000 
#    0.000    0.000    0.000    0.000    0.000    0.000 
#
# Total GULP energy -134122.999378 kJ/mol
# GULP energy per Si atom -5588.458307 kJ/mol
# Density = 2.215007 g / cm^3
# Si number density = 22.200595 Si / 1000 Ang^3
#
#
#
# Elastic Constant Matrix: (Units=GPa)
#
#
# Indices 1 2 3 4 5 6 
#
# 1 72.4336 9.8048 9.0856 -1.1312 1.9475 0.0000
# 2 9.8048 72.4336 9.0856 1.1312 -1.9475 0.0000
# 3 9.0856 9.0856 72.0339 0.0000 0.0000 0.0000
# 4 -1.1312 1.1312 0.0000 32.7207 0.0000 -1.9475
# 5 1.9475 -1.9475 0.0000 0.0000 32.7207 -1.1312
# 6 0.0000 0.0000 0.0000 -1.9475 -1.1312 31.3144
#
#
#
# Elastic Compliance Matrix: (Units=1/GPa)
#
#
# Indices 1 2 3 4 5 6 
#
# 1 0.014277 -0.001769 -0.001578 0.000555 -0.000955 0.000000
# 2 -0.001769 0.014277 -0.001578 -0.000555 0.000955 0.000000
# 3 -0.001578 -0.001578 0.014280 0.000000 0.000000 0.000000
# 4 0.000555 -0.000555 0.000000 0.030714 0.000000 0.001910
# 5 -0.000955 0.000955 0.000000 0.000000 0.030714 0.001110
# 6 0.000000 0.000000 0.000000 0.001910 0.001110 0.032093
#
#
# Mechanical properties :
#
#
# Convention : Reuss Voigt Hill
#
# Bulk Modulus (GPa) = 30.31554 30.31701 30.31627
# Shear Modulus (GPa) = 31.80661 31.94618 31.87639
#
# Velocity S-wave (km/s) = 3.78920 3.79750 3.79335
# Velocity P-wave (km/s) = 5.72966 5.73704 5.73335
#
# Compressibility (1/GPa) = 0.03298638
#
# Stress axis : x y z
#
# Youngs Moduli (GPa) = 70.04054 70.04054 70.02641
#
# Poissons Ratio (x) = 0.12391 0.11048
# Poissons Ratio (y) = 0.12391 0.11048
# Poissons Ratio (z) = 0.11050 0.11050
#
# Static dielectric constant tensor:
#      x y z
#    x 1.852080 0.000000 0.000000 
#    y 0.000000 1.852080 0.000000 
#    z 0.000000 0.000000 1.879090 
# 
# From -- ./inp_files/169.got.cif
#   From: 2010.05.17/outbox.cif.g08.bks.cpg/sg145_cif.got.tgz:169.got - 2010.05.20 13:47:28.
