data_PCOD9574497
_publ_section_title
;
Structure prediction by ZEFSAII (Michael W. Deem and Ramdas Pophale) SiO2 
 PCOD9574497
Probable space group: P 31
;
_chemical_formula_sum "Si O2"
_cell_formula_units_Z 21
_cell_length_a 9.732609
_cell_length_b 9.732609
_cell_length_c 10.062088
_cell_angle_alpha 90.000000
_cell_angle_beta 90.000000
_cell_angle_gamma 120.000000
_cell_volume 825.424386
_symmetry_space_group_name_H-M "P 31"
_symmetry_group_IT_number 144
_symmetry_cell_setting 'hexagonal'
loop_
_space_group_symop_operation_xyz
x,y,z
-y,x-y,1/3+z
-x+y,-x,2/3+z
loop_
_atom_site_type_symbol
_atom_site_label
_atom_site_fract_x
_atom_site_fract_y
_atom_site_fract_z
Si Si1 0.518457 0.275733 0.908130
Si Si2 0.969947 0.546615 0.116151
Si Si3 0.559064 0.705130 0.255978
Si Si4 0.684665 0.615069 0.837293
Si Si5 0.148620 0.117111 0.339664
Si Si6 0.174321 0.156346 0.874301
Si Si7 0.252142 0.518691 0.621511
O O1 0.617217 0.461846 0.933488
O O2 0.357211 0.241089 0.830608
O O3 0.608921 0.199130 0.834246
O O4 0.454178 0.173400 0.040509
O O5 0.102610 0.603653 0.233543
O O6 0.011411 0.465213 0.992441
O O7 0.976507 0.709663 0.078251
O O8 0.717184 0.868358 0.296735
O O9 0.400987 0.702043 0.303473
O O10 0.558782 0.726449 0.095597
O O11 0.844180 0.762155 0.889791
O O12 0.555434 0.670499 0.842237
O O13 0.061944 0.959473 0.428781
O O14 0.007747 0.137561 0.280511
#
# Coordination Sequence:
#
# PCOD9574497 Si02
#       7
#     3   3   3   3   3   3   3
#     4  12  28  49  80 114 162 210 266 341 409 496
#     4  12  29  47  78 115 161 208 269 332 417 489
#     4  12  26  45  80 111 154 207 268 326 405 488
#     4  12  27  50  76 112 158 205 266 329 412 485
#     4  12  28  47  77 113 160 209 265 338 407 490
#     4  12  26  48  76 114 154 208 270 329 406 477
#     4  12  24  48  75 113 151 207 264 329 398 493
#
# _framework density 25.441459999999999
#
# number of rings (size 3 to 8) (size 9 to 14) (size 15 to 20)
#    0.000    0.000    4.286    5.143    4.000    3.429 
#    0.000    0.000    0.000    0.000    0.000    0.000 
#    0.000    0.000    0.000    0.000    0.000    0.000 
#
# Total GULP energy -117607.568251 kJ/mol
# GULP energy per Si atom -5600.360393 kJ/mol
# Density = 2.538355 g / cm^3
# Si number density = 25.441460 Si / 1000 Ang^3
#
#
#
# Elastic Constant Matrix: (Units=GPa)
#
#
# Indices 1 2 3 4 5 6 
#
# 1 105.7261 6.6188 25.8997 10.2132 -0.0592 0.0000
# 2 6.6188 105.7261 25.8997 -10.2132 0.0592 0.0000
# 3 25.8997 25.8997 68.9295 0.0000 0.0000 0.0000
# 4 10.2132 -10.2132 0.0000 33.6461 0.0000 0.0592
# 5 -0.0592 0.0592 0.0000 0.0000 33.6461 10.2132
# 6 0.0000 0.0000 0.0000 0.0592 10.2132 49.5537
#
#
#
# Elastic Compliance Matrix: (Units=1/GPa)
#
#
# Indices 1 2 3 4 5 6 
#
# 1 0.010765 0.000001 -0.004045 -0.003267 0.000019 0.000000
# 2 0.000001 0.010765 -0.004045 0.003267 -0.000019 0.000000
# 3 -0.004045 -0.004045 0.017548 0.000000 0.000000 0.000000
# 4 -0.003267 0.003267 0.000000 0.031705 0.000000 -0.000038
# 5 0.000019 -0.000019 0.000000 0.000000 0.031705 -0.006534
# 6 0.000000 0.000000 0.000000 -0.000038 -0.006534 0.021527
#
#
# Mechanical properties :
#
#
# Convention : Reuss Voigt Hill
#
# Bulk Modulus (GPa) = 43.67030 44.13534 43.90282
# Shear Modulus (GPa) = 33.82369 38.16675 35.99522
#
# Velocity S-wave (km/s) = 3.65015 3.87742 3.76550
# Velocity P-wave (km/s) = 5.91329 6.11811 6.01657
#
# Compressibility (1/GPa) = 0.02289886
#
# Stress axis : x y z
#
# Youngs Moduli (GPa) = 92.89422 92.89422 56.98781
#
# Poissons Ratio (x) = -0.00014 0.23054
# Poissons Ratio (y) = -0.00014 0.23054
# Poissons Ratio (z) = 0.37579 0.37579
#
# Static dielectric constant tensor:
#      x y z
#    x 2.013620 0.000000 0.000000 
#    y 0.000000 2.013620 0.000000 
#    z 0.000000 0.000000 2.147530 
# 
# From -- ./inp_files/585.got.cif
#   From: 2010.05.17/outbox.cif.g08.bks.cpg/sg144_cif.got.tgz:585.got - 2010.05.20 13:46:34.
