data_PCOD9574688
_publ_section_title
;
Structure prediction by ZEFSAII (Michael W. Deem and Ramdas Pophale) SiO2 
 PCOD9574688
Probable space group: R 3
;
_chemical_formula_sum "Si O2"
_cell_formula_units_Z 60
_cell_length_a 11.998878
_cell_length_b 11.998878
_cell_length_c 20.382591
_cell_angle_alpha 90.000000
_cell_angle_beta 90.000000
_cell_angle_gamma 120.000000
_cell_volume 2541.389884
_symmetry_space_group_name_H-M "R 3"
_symmetry_group_IT_number 146
_symmetry_cell_setting 'hexagonal'
loop_
_space_group_symop_operation_xyz
x,y,z
-y,x-y,z
-x+y,-x,z
2/3+x,1/3+y,1/3+z
2/3-y,1/3+x-y,1/3+z
2/3-x+y,1/3-x,1/3+z
1/3+x,2/3+y,2/3+z
1/3-y,2/3+x-y,2/3+z
1/3-x+y,2/3-x,2/3+z
loop_
_atom_site_type_symbol
_atom_site_label
_atom_site_fract_x
_atom_site_fract_y
_atom_site_fract_z
Si Si1 0.920643 0.332012 0.384530
Si Si2 0.667989 0.079358 0.384530
Si Si3 0.000000 0.000000 0.504124
Si Si4 0.589339 0.922872 0.878056
Si Si5 0.333334 0.666668 0.326855
Si Si6 0.705444 0.852722 0.520698
Si Si7 0.287264 0.143632 0.713533
Si Si8 0.922673 0.333135 0.544722
O O1 0.784127 0.215874 0.362502
O O2 0.939994 0.469997 0.365171
O O3 0.919176 0.330555 0.464488
O O4 0.039297 0.313247 0.363908
O O5 0.669446 0.080825 0.464488
O O6 0.686754 0.960703 0.363909
O O7 0.848821 0.924410 0.487724
O O8 0.000000 0.000000 0.582496
O O9 0.601903 0.800952 0.898199
O O10 0.456182 0.912364 0.899693
O O11 0.709775 0.062833 0.893457
O O12 0.478869 0.739436 0.351056
O O13 0.608094 0.804047 0.459610
O O14 0.686390 0.729499 0.560123
#
# Coordination Sequence:
#
# PCOD9574688 Si02
#       8
#     9   9   3   9   3   9   9   9
#     4   9  16  27  45  75 112 151 198 262 313 364
#     4   9  16  27  45  75 112 151 198 262 313 364
#     4  12  24  42  66  96 132 174 213 267 334 404
#     4   9  16  27  45  75 112 151 198 262 313 364
#     4  12  24  42  66  96 132 174 213 267 334 404
#     4  10  20  34  56  88 124 158 220 265 313 370
#     4  10  20  34  56  88 124 158 220 265 313 370
#     4   9  16  27  45  75 112 151 198 262 313 364
#
# _framework density 23.60913
#
# number of rings (size 3 to 8) (size 9 to 14) (size 15 to 20)
#    0.000    2.400    3.000    0.600    4.200    2.400 
#    1.800    0.000    0.000    1.800    0.000    0.000 
#    0.000    0.000    0.000    0.000    0.000    0.000 
#
# Total GULP energy -111928.497513 kJ/mol
# GULP energy per Si atom -5596.424876 kJ/mol
# Density = 2.355539 g / cm^3
# Si number density = 23.609130 Si / 1000 Ang^3
#
#
#
# Elastic Constant Matrix: (Units=GPa)
#
#
# Indices 1 2 3 4 5 6 
#
# 1 176.5840 94.8665 3.8455 4.4174 0.0000 0.0000
# 2 94.8665 176.5829 3.8462 -4.4170 0.0002 0.0003
# 3 3.8455 3.8462 76.6034 -0.0001 -0.0001 -0.0002
# 4 4.4174 -4.4170 -0.0001 18.5259 -0.0001 -0.0002
# 5 0.0000 0.0002 -0.0001 -0.0001 18.5255 4.4166
# 6 0.0000 0.0003 -0.0002 -0.0002 4.4166 40.8580
#
#
#
# Elastic Compliance Matrix: (Units=1/GPa)
#
#
# Indices 1 2 3 4 5 6 
#
# 1 0.008125 -0.004436 -0.000185 -0.002995 0.000000 0.000000
# 2 -0.004436 0.008125 -0.000185 0.002995 0.000000 0.000000
# 3 -0.000185 -0.000185 0.013073 0.000000 0.000000 0.000000
# 4 -0.002995 0.002995 0.000000 0.055407 0.000000 0.000000
# 5 0.000000 0.000000 0.000000 0.000000 0.055408 -0.005989
# 6 0.000000 0.000000 0.000000 0.000000 -0.005989 0.025122
#
#
# Mechanical properties :
#
#
# Convention : Reuss Voigt Hill
#
# Bulk Modulus (GPa) = 50.73480 70.54297 60.63888
# Shear Modulus (GPa) = 27.55689 37.39602 32.47645
#
# Velocity S-wave (km/s) = 3.42016 3.98422 3.71292
# Velocity P-wave (km/s) = 6.09367 7.14911 6.64238
#
# Compressibility (1/GPa) = 0.01971034
#
# Stress axis : x y z
#
# Youngs Moduli (GPa) = 123.07484 123.07416 76.49439
#
# Poissons Ratio (x) = 0.54596 0.01416
# Poissons Ratio (y) = 0.54596 0.01417
# Poissons Ratio (z) = 0.02279 0.02280
#
# Static dielectric constant tensor:
#      x y z
#    x 1.834570 0.000000 0.000000 
#    y 0.000000 1.834570 0.000000 
#    z 0.000000 0.000000 1.943280 
# 
# From -- ./inp_files/2270.got.cif
#   From: 2010.05.17/outbox.cif.g08.bks.cpg/sg146_cif.got.tgz:2270.got - 2010.05.20 13:48:23.
