data_PCOD9574767
_publ_section_title
;
Structure prediction by ZEFSAII (Michael W. Deem and Ramdas Pophale) SiO2 
 PCOD9574767
Probable space group: R 3
;
_chemical_formula_sum "Si O2"
_cell_formula_units_Z 45
_cell_length_a 18.787796
_cell_length_b 18.787796
_cell_length_c 6.588713
_cell_angle_alpha 90.000000
_cell_angle_beta 90.000000
_cell_angle_gamma 120.000000
_cell_volume 2014.108647
_symmetry_space_group_name_H-M "R 3"
_symmetry_group_IT_number 146
_symmetry_cell_setting 'hexagonal'
loop_
_space_group_symop_operation_xyz
x,y,z
-y,x-y,z
-x+y,-x,z
2/3+x,1/3+y,1/3+z
2/3-y,1/3+x-y,1/3+z
2/3-x+y,1/3-x,1/3+z
1/3+x,2/3+y,2/3+z
1/3-y,2/3+x-y,2/3+z
1/3-x+y,2/3-x,2/3+z
loop_
_atom_site_type_symbol
_atom_site_label
_atom_site_fract_x
_atom_site_fract_y
_atom_site_fract_z
Si Si1 0.218594 0.850834 0.084640
Si Si2 0.942186 0.592492 0.691032
Si Si3 0.771690 0.491325 0.855115
Si Si4 0.020521 0.184542 0.161440
Si Si5 0.170845 0.049850 0.743129
O O1 0.159845 0.763440 0.979994
O O2 0.177332 0.906684 0.076524
O O3 0.234175 0.829622 0.314248
O O4 0.303693 0.881778 0.968640
O O5 0.952257 0.645119 0.496614
O O6 0.860463 0.570088 0.817061
O O7 0.725631 0.474696 0.636232
O O8 0.789246 0.424424 0.965793
O O9 0.710318 0.503053 0.998240
O O10 0.961338 0.126311 0.983841
#
# Coordination Sequence:
#
# PCOD9574767 Si02
#       5
#     9   9   9   9   9
#     4  10  25  43  65 103 134 184 236 286 353 430
#     4  11  24  42  67  98 139 180 226 285 338 417
#     4  10  23  45  66 106 134 182 243 284 356 422
#     4  11  24  44  71  97 144 182 234 296 355 415
#     4  10  24  42  71 100 141 182 233 301 344 420
#
# _framework density 22.342388
#
# number of rings (size 3 to 8) (size 9 to 14) (size 15 to 20)
#    0.000    1.600    2.000    0.400    5.600    9.600 
#    0.000    0.000    0.000    0.000    0.000    0.000 
#    0.000    0.000    0.000    0.000    0.000    0.000 
#
# Total GULP energy -83689.593315 kJ/mol
# GULP energy per Si atom -5579.306221 kJ/mol
# Density = 2.229154 g / cm^3
# Si number density = 22.342388 Si / 1000 Ang^3
#
#
#
# Elastic Constant Matrix: (Units=GPa)
#
#
# Indices 1 2 3 4 5 6 
#
# 1 69.3577 13.8254 31.3886 -1.9810 -1.0894 0.0004
# 2 13.8254 69.4098 31.4623 1.9699 1.0617 0.0001
# 3 31.3886 31.4623 113.3993 -0.0120 -0.0215 -0.0004
# 4 -1.9810 1.9699 -0.0120 30.6155 -0.0056 1.0603
# 5 -1.0894 1.0617 -0.0215 -0.0056 30.6092 -1.9703
# 6 0.0004 0.0001 -0.0004 1.0603 -1.9703 27.7921
#
#
#
# Elastic Compliance Matrix: (Units=1/GPa)
#
#
# Indices 1 2 3 4 5 6 
#
# 1 0.016655 -0.001454 -0.004206 0.001170 0.000640 0.000000
# 2 -0.001454 0.016651 -0.004218 -0.001167 -0.000632 0.000000
# 3 -0.004206 -0.004218 0.011153 0.000004 0.000004 0.000000
# 4 0.001170 -0.001167 0.000004 0.032857 0.000008 -0.001253
# 5 0.000640 -0.000632 0.000004 0.000008 0.032865 0.002330
# 6 0.000000 0.000000 0.000000 -0.001253 0.002330 0.036194
#
#
# Mechanical properties :
#
#
# Convention : Reuss Voigt Hill
#
# Bulk Modulus (GPa) = 40.48016 45.05770 42.76893
# Shear Modulus (GPa) = 28.67533 29.50272 29.08902
#
# Velocity S-wave (km/s) = 3.58641 3.63779 3.61219
# Velocity P-wave (km/s) = 5.94199 6.15267 6.04825
#
# Compressibility (1/GPa) = 0.02470346
#
# Stress axis : x y z
#
# Youngs Moduli (GPa) = 60.04225 60.05513 89.66243
#
# Poissons Ratio (x) = 0.08730 0.37716
# Poissons Ratio (y) = 0.08728 0.37817
# Poissons Ratio (z) = 0.25257 0.25330
#
# Static dielectric constant tensor:
#      x y z
#    x 1.820740 0.000000 0.000000 
#    y 0.000000 1.820720 0.000000 
#    z 0.000000 0.000000 1.851580 
# 
# From -- ./inp_files/242.got.cif
#   From: 2010.05.17/outbox.cif.g08.bks.cpg/sg146_cif.got.tgz:242.got - 2010.05.20 13:48:23.
