data_PCOD9574830
_publ_section_title
;
Structure prediction by ZEFSAII (Michael W. Deem and Ramdas Pophale) SiO2 
 PCOD9574830
Probable space group: R 3
;
_chemical_formula_sum "Si O2"
_cell_formula_units_Z 42
_cell_length_a 17.264355
_cell_length_b 17.264355
_cell_length_c 7.517371
_cell_angle_alpha 90.000000
_cell_angle_beta 90.000000
_cell_angle_gamma 120.000000
_cell_volume 1940.427099
_symmetry_space_group_name_H-M "R 3"
_symmetry_group_IT_number 146
_symmetry_cell_setting 'hexagonal'
loop_
_space_group_symop_operation_xyz
x,y,z
-y,x-y,z
-x+y,-x,z
2/3+x,1/3+y,1/3+z
2/3-y,1/3+x-y,1/3+z
2/3-x+y,1/3-x,1/3+z
1/3+x,2/3+y,2/3+z
1/3-y,2/3+x-y,2/3+z
1/3-x+y,2/3-x,2/3+z
loop_
_atom_site_type_symbol
_atom_site_label
_atom_site_fract_x
_atom_site_fract_y
_atom_site_fract_z
Si Si1 0.666668 0.333334 0.667836
Si Si2 0.070622 0.865220 0.465066
Si Si3 0.552046 0.055769 0.932978
Si Si4 0.668064 0.732083 0.044654
Si Si5 0.685282 0.511102 0.117866
Si Si6 0.333334 0.666667 0.576072
O O1 0.700472 0.264652 0.732955
O O2 0.666668 0.333334 0.454627
O O3 0.109644 0.824145 0.321516
O O4 0.990044 0.779803 0.562912
O O5 0.147838 0.923668 0.608367
O O6 0.501401 0.059165 0.754510
O O7 0.527203 0.108259 0.078343
O O8 0.627240 0.653116 0.900458
O O9 0.757079 0.805008 0.949585
O O10 0.701782 0.430837 0.164713
#
# Coordination Sequence:
#
# PCOD9574830 Si02
#       6
#     3   9   9   9   9   3
#     4  12  25  50  79 108 148 206 262 316 383 466
#     4  12  26  49  75 107 158 198 256 324 381 459
#     4  12  26  46  74 110 149 200 250 317 388 446
#     4  12  25  45  74 108 145 189 250 316 378 457
#     4  12  23  47  74 104 149 196 255 308 380 461
#     4  12  25  41  76 111 133 203 265 307 374 463
#
# _framework density 21.64472
#
# number of rings (size 3 to 8) (size 9 to 14) (size 15 to 20)
#    0.000    0.000    6.429    3.857    3.000    1.714 
#    3.857    0.000    0.000    0.000    0.000    0.000 
#    0.000    0.000    0.000    0.000    0.000    0.000 
#
# Total GULP energy -78307.301453 kJ/mol
# GULP energy per Si atom -5593.378675 kJ/mol
# Density = 2.159546 g / cm^3
# Si number density = 21.644720 Si / 1000 Ang^3
#
#
#
# Elastic Constant Matrix: (Units=GPa)
#
#
# Indices 1 2 3 4 5 6 
#
# 1 97.8432 33.3360 21.2609 -2.3379 2.7176 -0.0004
# 2 33.3360 97.8439 21.2600 2.3384 -2.7167 0.0002
# 3 21.2609 21.2600 86.5349 0.0018 0.0025 0.0004
# 4 -2.3379 2.3384 0.0018 35.6955 0.0003 -2.7175
# 5 2.7176 -2.7167 0.0025 0.0003 35.6956 -2.3382
# 6 -0.0004 0.0002 0.0004 -2.7175 -2.3382 32.2540
#
#
#
# Elastic Compliance Matrix: (Units=1/GPa)
#
#
# Indices 1 2 3 4 5 6 
#
# 1 0.011980 -0.003697 -0.002035 0.001027 -0.001193 0.000000
# 2 -0.003697 0.011980 -0.002035 -0.001027 0.001193 0.000000
# 3 -0.002035 -0.002035 0.012556 -0.000001 -0.000001 0.000000
# 4 0.001027 -0.001027 -0.000001 0.028331 0.000000 0.002387
# 5 -0.001193 0.001193 -0.000001 0.000000 0.028331 0.002054
# 6 0.000000 0.000000 0.000000 0.002387 0.002054 0.031354
#
#
# Mechanical properties :
#
#
# Convention : Reuss Voigt Hill
#
# Bulk Modulus (GPa) = 47.66073 48.21507 47.93790
# Shear Modulus (GPa) = 33.99986 34.48670 34.24328
#
# Velocity S-wave (km/s) = 3.96765 3.99596 3.98183
# Velocity P-wave (km/s) = 6.56179 6.60411 6.58298
#
# Compressibility (1/GPa) = 0.02098163
#
# Stress axis : x y z
#
# Youngs Moduli (GPa) = 83.47269 83.47373 79.64347
#
# Poissons Ratio (x) = 0.30861 0.16208
# Poissons Ratio (y) = 0.30861 0.16206
# Poissons Ratio (z) = 0.16987 0.16986
#
# Static dielectric constant tensor:
#      x y z
#    x 1.813770 0.000000 0.000000 
#    y 0.000000 1.813770 0.000000 
#    z 0.000000 0.000000 1.773320 
# 
# From -- ./inp_files/633.got.cif
#   From: 2010.05.17/outbox.cif.g08.bks.cpg/sg146_cif.got.tgz:633.got - 2010.05.20 13:48:23.
