data_PCOD9574105
_publ_section_title
;
Structure prediction by ZEFSAII (Michael W. Deem and Ramdas Pophale) SiO2 
 PCOD9574105
Probable space group: I 41/A C D
;
_chemical_formula_sum "Si O2"
_cell_formula_units_Z 160
_cell_length_a 19.861372
_cell_length_b 19.861372
_cell_length_c 18.476786
_cell_angle_alpha 90.000000
_cell_angle_beta 90.000000
_cell_angle_gamma 90.000000
_cell_volume 7288.613486
_symmetry_space_group_name_H-M "I 41/A C D"
_symmetry_group_IT_number 142
_space_group.IT_coordinate_system_code '2'
_symmetry_cell_setting 'tetragonal'
loop_
_space_group_symop_operation_xyz
x,y,z
1/4-y,3/4+x,1/4+z
-x,1/2-y,z
1/4+y,1/4-x,3/4+z
x,-y,1/2-z
1/2-x,y,-z
3/4+y,1/4+x,1/4-z
1/4-y,1/4-x,1/4-z
-x,-y,-z
3/4+y,1/4-x,3/4-z
x,1/2+y,-z
3/4-y,3/4+x,1/4-z
-x,y,1/2+z
1/2+x,-y,z
1/4-y,3/4-x,3/4+z
3/4+y,3/4+x,3/4+z
1/2+x,1/2+y,1/2+z
3/4-y,1/4+x,3/4+z
1/2-x,-y,1/2+z
3/4+y,3/4-x,1/4+z
1/2+x,1/2-y,-z
-x,1/2+y,1/2-z
1/4+y,3/4+x,3/4-z
3/4-y,3/4-x,3/4-z
1/2-x,1/2-y,1/2-z
1/4+y,3/4-x,1/4-z
1/2+x,y,1/2-z
1/4-y,1/4+x,3/4-z
1/2-x,1/2+y,z
x,1/2-y,1/2+z
3/4-y,1/4-x,1/4+z
1/4+y,1/4+x,1/4+z
loop_
_atom_site_type_symbol
_atom_site_label
_atom_site_fract_x
_atom_site_fract_y
_atom_site_fract_z
Si Si1 0.930065 0.925476 0.343339
Si Si2 0.680315 0.871523 0.438301
Si Si3 0.312979 0.472912 0.455508
Si Si4 0.053099 0.331318 0.405021
Si Si5 0.818623 0.283505 0.218664
O O1 0.879699 0.870302 0.375000
O O2 0.928333 0.918855 0.256320
O O3 0.998070 0.920630 0.390573
O O4 0.898193 0.000088 0.350735
O O5 0.624227 0.863353 0.378009
O O6 0.680791 0.946855 0.468950
O O7 0.250000 0.444959 0.500000
O O8 0.288970 0.461031 0.375000
O O9 0.386462 0.441647 0.464680
O O10 0.077857 0.255064 0.406657
O O11 0.024154 0.368819 0.475563
O O12 0.750000 0.250000 0.250000
#
# Coordination Sequence:
#
# PCOD9574105 Si02
#       5
#    32  32  32  32  32
#     4  11  22  40  67  98 137 186 242 292 358 442
#     4  11  23  39  68  97 139 187 244 292 371 449
#     4  12  26  45  71 108 148 193 245 320 388 448
#     4  11  24  43  67  96 137 188 239 300 370 444
#     4  12  25  43  70 104 143 189 246 304 369 453
#
# _framework density 21.952048000000001
#
# number of rings (size 3 to 8) (size 9 to 14) (size 15 to 20)
#    0.000    0.600    4.000    5.400    0.000    1.600 
#    3.600    0.000    0.000    3.600    0.000    0.000 
#    0.000    0.000    0.000    0.000    0.000    0.000 
#
# Total GULP energy -446733.622955 kJ/mol
# GULP energy per Si atom -5584.170287 kJ/mol
# Density = 2.190208 g / cm^3
# Si number density = 21.952048 Si / 1000 Ang^3
#
#
#
# Elastic Constant Matrix: (Units=GPa)
#
#
# Indices 1 2 3 4 5 6 
#
# 1 97.2662 31.7332 39.0544 0.0000 0.0000 0.0000
# 2 31.7332 97.2627 39.0578 0.0000 0.0000 0.0000
# 3 39.0544 39.0578 101.5363 0.0000 0.0000 0.0000
# 4 0.0000 0.0000 0.0000 27.1733 0.0000 0.0000
# 5 0.0000 0.0000 0.0000 0.0000 27.1738 0.0000
# 6 0.0000 0.0000 0.0000 0.0000 0.0000 25.1641
#
#
#
# Elastic Compliance Matrix: (Units=1/GPa)
#
#
# Indices 1 2 3 4 5 6 
#
# 1 0.012682 -0.002577 -0.003887 0.000000 0.000000 0.000000
# 2 -0.002577 0.012683 -0.003888 0.000000 0.000000 0.000000
# 3 -0.003887 -0.003888 0.012839 0.000000 0.000000 0.000000
# 4 0.000000 0.000000 0.000000 0.036801 0.000000 0.000000
# 5 0.000000 0.000000 0.000000 0.000000 0.036800 0.000000
# 6 0.000000 0.000000 0.000000 0.000000 0.000000 0.039739
#
#
# Mechanical properties :
#
#
# Convention : Reuss Voigt Hill
#
# Bulk Modulus (GPa) = 57.13634 57.30623 57.22129
# Shear Modulus (GPa) = 28.07693 28.31690 28.19691
#
# Velocity S-wave (km/s) = 3.58021 3.59547 3.58785
# Velocity P-wave (km/s) = 6.57075 6.58775 6.57926
#
# Compressibility (1/GPa) = 0.01750200
#
# Stress axis : x y z
#
# Youngs Moduli (GPa) = 78.84906 78.84330 77.88657
#
# Poissons Ratio (x) = 0.20318 0.30273
# Poissons Ratio (y) = 0.20319 0.30280
# Poissons Ratio (z) = 0.30647 0.30652
#
# Static dielectric constant tensor:
#      x y z
#    x 1.845720 0.000000 0.000000 
#    y 0.000000 1.845730 0.000000 
#    z 0.000000 0.000000 1.814290 
# 
# From -- ./inp_files/7417.got.cif
#   From: 2010.05.17/outbox.cif.g08.bks.cpg/sg142_4_cif.got.tgz:7417.got - 2010.05.20 13:39:18.
