data_PCOD9574367
_publ_section_title
;
Structure prediction by ZEFSAII (Michael W. Deem and Ramdas Pophale) SiO2 
 PCOD9574367
Probable space group: P 31
;
_chemical_formula_sum "Si O2"
_cell_formula_units_Z 15
_cell_length_a 10.674571
_cell_length_b 10.674571
_cell_length_c 5.864133
_cell_angle_alpha 90.000000
_cell_angle_beta 90.000000
_cell_angle_gamma 120.000000
_cell_volume 578.675777
_symmetry_space_group_name_H-M "P 31"
_symmetry_group_IT_number 144
_symmetry_cell_setting 'hexagonal'
loop_
_space_group_symop_operation_xyz
x,y,z
-y,x-y,1/3+z
-x+y,-x,2/3+z
loop_
_atom_site_type_symbol
_atom_site_label
_atom_site_fract_x
_atom_site_fract_y
_atom_site_fract_z
Si Si1 0.583532 0.492088 0.980150
Si Si2 0.443674 0.528406 0.592602
Si Si3 0.928345 0.725370 0.635443
Si Si4 0.577595 0.754586 0.239992
Si Si5 0.336809 0.213099 0.454809
O O1 0.580017 0.528950 0.714227
O O2 0.439148 0.338772 0.998237
O O3 0.578956 0.624109 0.107587
O O4 0.729328 0.510247 0.083173
O O5 0.501485 0.678507 0.471209
O O6 0.326319 0.511924 0.775039
O O7 0.363452 0.376308 0.457705
O O8 0.872585 0.721946 0.375895
O O9 0.100822 0.829975 0.613991
O O10 0.884264 0.751840 0.889463
#
# Coordination Sequence:
#
# PCOD9574367 Si02
#       5
#     3   3   3   3   3
#     4  10  22  39  67  89 132 184 217 285 342 400
#     4  10  24  41  63 103 139 178 230 287 348 409
#     4  10  24  41  62  96 134 171 227 283 332 408
#     4  10  22  40  63 100 137 179 221 286 350 405
#     4  10  22  43  57  94 138 168 225 267 336 408
#
# _framework density 25.921247000000001
#
# number of rings (size 3 to 8) (size 9 to 14) (size 15 to 20)
#    0.000    2.400    2.000    0.000    8.400    6.400 
#    7.200    0.000    0.000    9.600    0.000    0.000 
#    0.000    0.000    0.000    0.000    0.000    0.000 
#
# Total GULP energy -83709.719778 kJ/mol
# GULP energy per Si atom -5580.647985 kJ/mol
# Density = 2.586225 g / cm^3
# Si number density = 25.921247 Si / 1000 Ang^3
#
#
#
# Elastic Constant Matrix: (Units=GPa)
#
#
# Indices 1 2 3 4 5 6 
#
# 1 83.9685 21.9353 31.8844 7.5389 6.7418 0.0000
# 2 21.9353 83.9685 31.8844 -7.5389 -6.7418 0.0000
# 3 31.8844 31.8844 186.5627 0.0000 0.0000 0.0000
# 4 7.5389 -7.5389 0.0000 40.9672 0.0000 -6.7418
# 5 6.7418 -6.7418 0.0000 0.0000 40.9672 7.5389
# 6 0.0000 0.0000 0.0000 -6.7418 7.5389 31.0166
#
#
#
# Elastic Compliance Matrix: (Units=1/GPa)
#
#
# Indices 1 2 3 4 5 6 
#
# 1 0.014029 -0.003503 -0.001799 -0.003226 -0.002885 0.000000
# 2 -0.003503 0.014029 -0.001799 0.003226 0.002885 0.000000
# 3 -0.001799 -0.001799 0.005975 0.000000 0.000000 0.000000
# 4 -0.003226 0.003226 0.000000 0.026547 0.000000 0.005770
# 5 -0.002885 0.002885 0.000000 0.000000 0.026547 -0.006453
# 6 0.000000 0.000000 0.000000 0.005770 -0.006453 0.035063
#
#
# Mechanical properties :
#
#
# Convention : Reuss Voigt Hill
#
# Bulk Modulus (GPa) = 50.42642 58.43419 54.43030
# Shear Modulus (GPa) = 34.96474 40.50992 37.73733
#
# Velocity S-wave (km/s) = 3.67670 3.95752 3.81969
# Velocity P-wave (km/s) = 6.12536 6.59353 6.36375
#
# Compressibility (1/GPa) = 0.01983087
#
# Stress axis : x y z
#
# Youngs Moduli (GPa) = 71.28242 71.28242 167.36396
#
# Poissons Ratio (x) = 0.24970 0.30107
# Poissons Ratio (y) = 0.24970 0.30107
# Poissons Ratio (z) = 0.12823 0.12823
#
# Static dielectric constant tensor:
#      x y z
#    x 2.033170 0.000000 0.000000 
#    y 0.000000 2.033170 0.000000 
#    z 0.000000 0.000000 2.212280 
# 
# From -- ./inp_files/62.got.cif
#   From: 2010.05.17/outbox.cif.g08.bks.cpg/sg144_cif.got.tgz:62.got - 2010.05.20 13:46:34.
