data_PCOD9574770
_publ_section_title
;
Structure prediction by ZEFSAII (Michael W. Deem and Ramdas Pophale) SiO2 
 PCOD9574770
Probable space group: R 3
;
_chemical_formula_sum "Si O2"
_cell_formula_units_Z 36
_cell_length_a 11.226863
_cell_length_b 11.226863
_cell_length_c 11.661088
_cell_angle_alpha 90.000000
_cell_angle_beta 90.000000
_cell_angle_gamma 120.000000
_cell_volume 1272.877326
_symmetry_space_group_name_H-M "R 3"
_symmetry_group_IT_number 146
_symmetry_cell_setting 'hexagonal'
loop_
_space_group_symop_operation_xyz
x,y,z
-y,x-y,z
-x+y,-x,z
2/3+x,1/3+y,1/3+z
2/3-y,1/3+x-y,1/3+z
2/3-x+y,1/3-x,1/3+z
1/3+x,2/3+y,2/3+z
1/3-y,2/3+x-y,2/3+z
1/3-x+y,2/3-x,2/3+z
loop_
_atom_site_type_symbol
_atom_site_label
_atom_site_fract_x
_atom_site_fract_y
_atom_site_fract_z
Si Si1 0.872067 0.127422 0.601810
Si Si2 0.448044 0.422734 0.568551
Si Si3 0.169269 0.847401 0.512624
Si Si4 0.390533 0.070098 0.402851
O O1 0.971744 0.225147 0.500368
O O2 0.938816 0.212711 0.721450
O O3 0.731728 0.133444 0.605341
O O4 0.818855 0.971177 0.567637
O O5 0.321968 0.406495 0.490704
O O6 0.590193 0.501320 0.502156
O O7 0.472681 0.508773 0.684275
O O8 0.257769 0.856515 0.623838
#
# Coordination Sequence:
#
# PCOD9574770 Si02
#       4
#     9   9   9   9
#     4  10  23  47  74 118 167 222 298 350 440 532
#     4  12  24  49  87 119 181 230 296 375 438 547
#     4  10  24  48  77 119 172 219 296 357 441 529
#     4  10  23  48  76 124 164 225 308 348 457 518
#
# _framework density 28.282381000000001
#
# number of rings (size 3 to 8) (size 9 to 14) (size 15 to 20)
#    1.500    0.000    2.500    1.500    0.000    8.000 
#    4.500    5.000    0.000    0.000    0.000    0.000 
#    0.000    0.000    0.000    0.000    0.000    0.000 
#
# Total GULP energy -66836.550727 kJ/mol
# GULP energy per Si atom -5569.712561 kJ/mol
# Density = 2.821801 g / cm^3
# Si number density = 28.282381 Si / 1000 Ang^3
#
#
#
# Elastic Constant Matrix: (Units=GPa)
#
#
# Indices 1 2 3 4 5 6 
#
# 1 177.7956 42.4484 50.4627 -5.0481 9.6461 0.0000
# 2 42.4484 177.7957 50.4627 5.0481 -9.6461 0.0000
# 3 50.4627 50.4627 141.1742 0.0000 0.0000 0.0000
# 4 -5.0481 5.0481 0.0000 64.3267 0.0000 -9.6461
# 5 9.6461 -9.6461 0.0000 0.0000 64.3267 -5.0481
# 6 0.0000 0.0000 0.0000 -9.6461 -5.0481 67.6736
#
#
#
# Elastic Compliance Matrix: (Units=1/GPa)
#
#
# Indices 1 2 3 4 5 6 
#
# 1 0.006513 -0.001083 -0.001941 0.000596 -0.001139 0.000000
# 2 -0.001083 0.006513 -0.001941 -0.000596 0.001139 0.000000
# 3 -0.001941 -0.001941 0.008471 0.000000 0.000000 0.000000
# 4 0.000596 -0.000596 0.000000 0.015981 0.000000 0.002278
# 5 -0.001139 0.001139 0.000000 0.000000 0.015981 0.001192
# 6 0.000000 0.000000 0.000000 0.002278 0.001192 0.015190
#
#
# Mechanical properties :
#
#
# Convention : Reuss Voigt Hill
#
# Bulk Modulus (GPa) = 86.45231 87.05701 86.75466
# Shear Modulus (GPa) = 60.65560 62.82485 61.74023
#
# Velocity S-wave (km/s) = 4.63605 4.71823 4.67732
# Velocity P-wave (km/s) = 7.70008 7.78013 7.74021
#
# Compressibility (1/GPa) = 0.01156707
#
# Stress axis : x y z
#
# Youngs Moduli (GPa) = 153.55055 153.55055 118.04994
#
# Poissons Ratio (x) = 0.16625 0.22912
# Poissons Ratio (y) = 0.16625 0.22912
# Poissons Ratio (z) = 0.29802 0.29802
#
# Static dielectric constant tensor:
#      x y z
#    x 2.217220 0.000000 0.000000 
#    y 0.000000 2.217220 0.000000 
#    z 0.000000 0.000000 2.270110 
# 
# From -- ./inp_files/1398.got.cif
#   From: 2010.05.17/outbox.cif.g08.bks.cpg/sg146_cif.got.tgz:1398.got - 2010.05.20 13:48:23.
