data_PCOD9574212
_publ_section_title
;
Structure prediction by ZEFSAII (Michael W. Deem and Ramdas Pophale) SiO2 
 PCOD9574212
Probable space group: I 41/A C D
;
_chemical_formula_sum "Si O2"
_cell_formula_units_Z 96
_cell_length_a 13.290578
_cell_length_b 13.290578
_cell_length_c 25.791525
_cell_angle_alpha 90.000000
_cell_angle_beta 90.000000
_cell_angle_gamma 90.000000
_cell_volume 4555.801141
_symmetry_space_group_name_H-M "I 41/A C D"
_symmetry_group_IT_number 142
_space_group.IT_coordinate_system_code '2'
_symmetry_cell_setting 'tetragonal'
loop_
_space_group_symop_operation_xyz
x,y,z
1/4-y,3/4+x,1/4+z
-x,1/2-y,z
1/4+y,1/4-x,3/4+z
x,-y,1/2-z
1/2-x,y,-z
3/4+y,1/4+x,1/4-z
1/4-y,1/4-x,1/4-z
-x,-y,-z
3/4+y,1/4-x,3/4-z
x,1/2+y,-z
3/4-y,3/4+x,1/4-z
-x,y,1/2+z
1/2+x,-y,z
1/4-y,3/4-x,3/4+z
3/4+y,3/4+x,3/4+z
1/2+x,1/2+y,1/2+z
3/4-y,1/4+x,3/4+z
1/2-x,-y,1/2+z
3/4+y,3/4-x,1/4+z
1/2+x,1/2-y,-z
-x,1/2+y,1/2-z
1/4+y,3/4+x,3/4-z
3/4-y,3/4-x,3/4-z
1/2-x,1/2-y,1/2-z
1/4+y,3/4-x,1/4-z
1/2+x,y,1/2-z
1/4-y,1/4+x,3/4-z
1/2-x,1/2+y,z
x,1/2-y,1/2+z
3/4-y,1/4-x,1/4+z
1/4+y,1/4+x,1/4+z
loop_
_atom_site_type_symbol
_atom_site_label
_atom_site_fract_x
_atom_site_fract_y
_atom_site_fract_z
Si Si1 0.500000 0.750000 0.986040
Si Si2 0.830379 0.602519 0.047502
Si Si3 0.146587 0.309088 0.678565
Si Si4 0.652493 0.902493 0.625000
O O1 0.582591 0.686167 0.955230
O O2 0.566106 0.819122 0.024433
O O3 0.891144 0.498498 0.051810
O O4 0.758840 0.609392 0.097167
O O5 0.750000 0.606109 0.000000
O O6 0.110519 0.360519 0.625000
O O7 0.148320 0.190367 0.665019
#
# Coordination Sequence:
#
# PCOD9574212 Si02
#       4
#    16  32  32  16
#     4  12  25  46  71 108 142 196 248 306 366 448
#     4  12  27  46  75 108 147 194 248 303 375 450
#     4  12  23  46  74 101 148 192 240 304 369 435
#     4  12  25  46  72 111 148 194 244 306 370 441
#
# _framework density 21.072035
#
# number of rings (size 3 to 8) (size 9 to 14) (size 15 to 20)
#    0.000    0.000    8.333    1.000    0.000    6.667 
#    0.000    0.000    0.000    0.000    0.000    0.000 
#    0.000    0.000    0.000    0.000    0.000    0.000 
#
# Total GULP energy -268421.702495 kJ/mol
# GULP energy per Si atom -5592.118802 kJ/mol
# Density = 2.102407 g / cm^3
# Si number density = 21.072035 Si / 1000 Ang^3
#
#
#
# Elastic Constant Matrix: (Units=GPa)
#
#
# Indices 1 2 3 4 5 6 
#
# 1 134.4509 97.1553 43.2192 0.0000 0.0000 0.0000
# 2 97.1553 134.4509 43.2192 0.0000 0.0000 0.0000
# 3 43.2192 43.2192 59.1437 0.0000 0.0000 0.0000
# 4 0.0000 0.0000 0.0000 25.8218 0.0000 0.0000
# 5 0.0000 0.0000 0.0000 0.0000 25.8218 0.0000
# 6 0.0000 0.0000 0.0000 0.0000 0.0000 47.0099
#
#
#
# Elastic Compliance Matrix: (Units=1/GPa)
#
#
# Indices 1 2 3 4 5 6 
#
# 1 0.016375 -0.010438 -0.004338 0.000000 0.000000 0.000000
# 2 -0.010438 0.016375 -0.004338 0.000000 0.000000 0.000000
# 3 -0.004338 -0.004338 0.023248 0.000000 0.000000 0.000000
# 4 0.000000 0.000000 0.000000 0.038727 0.000000 0.000000
# 5 0.000000 0.000000 0.000000 0.000000 0.038727 0.000000
# 6 0.000000 0.000000 0.000000 0.000000 0.000000 0.021272
#
#
# Mechanical properties :
#
#
# Convention : Reuss Voigt Hill
#
# Bulk Modulus (GPa) = 56.27853 77.24810 66.76332
# Shear Modulus (GPa) = 25.14126 29.36080 27.25103
#
# Velocity S-wave (km/s) = 3.45789 3.73682 3.60005
# Velocity P-wave (km/s) = 6.53516 7.44023 7.00233
#
# Compressibility (1/GPa) = 0.01776876
#
# Stress axis : x y z
#
# Youngs Moduli (GPa) = 61.06951 61.06951 43.01372
#
# Poissons Ratio (x) = 0.63744 0.18661
# Poissons Ratio (y) = 0.63744 0.18661
# Poissons Ratio (z) = 0.26494 0.26494
#
# Static dielectric constant tensor:
#      x y z
#    x 1.770240 0.000000 0.000000 
#    y 0.000000 1.770240 0.000000 
#    z 0.000000 0.000000 1.922570 
# 
# From -- ./inp_files/9658.got.cif
#   From: 2010.05.17/outbox.cif.g08.bks.cpg/sg142_5_cif.got.tgz:9658.got - 2010.05.20 13:39:18.
