data_PCOD9574704
_publ_section_title
;
Structure prediction by ZEFSAII (Michael W. Deem and Ramdas Pophale) SiO2 
 PCOD9574704
Probable space group: R 3
;
_chemical_formula_sum "Si O2"
_cell_formula_units_Z 72
_cell_length_a 22.462831
_cell_length_b 22.462831
_cell_length_c 8.893568
_cell_angle_alpha 90.000000
_cell_angle_beta 90.000000
_cell_angle_gamma 120.000000
_cell_volume 3886.293902
_symmetry_space_group_name_H-M "R 3"
_symmetry_group_IT_number 146
_symmetry_cell_setting 'hexagonal'
loop_
_space_group_symop_operation_xyz
x,y,z
-y,x-y,z
-x+y,-x,z
2/3+x,1/3+y,1/3+z
2/3-y,1/3+x-y,1/3+z
2/3-x+y,1/3-x,1/3+z
1/3+x,2/3+y,2/3+z
1/3-y,2/3+x-y,2/3+z
1/3-x+y,2/3-x,2/3+z
loop_
_atom_site_type_symbol
_atom_site_label
_atom_site_fract_x
_atom_site_fract_y
_atom_site_fract_z
Si Si1 0.361611 0.408642 0.850030
Si Si2 0.183986 0.576867 0.805853
Si Si3 0.213336 0.371773 0.725516
Si Si4 0.059396 0.970928 0.457921
Si Si5 0.732261 0.957301 0.517214
Si Si6 0.063031 0.539035 0.625948
Si Si7 0.611401 0.193150 0.322619
Si Si8 0.786600 0.487544 0.050627
O O1 0.285409 0.386424 0.798127
O O2 0.369691 0.342268 0.877579
O O3 0.413756 0.455167 0.720765
O O4 0.379520 0.450474 0.005376
O O5 0.107787 0.523984 0.745303
O O6 0.239082 0.564908 0.714480
O O7 0.204377 0.654981 0.762192
O O8 0.196435 0.574390 0.982126
O O9 0.202663 0.319404 0.590075
O O10 0.156349 0.334646 0.856153
O O11 0.227270 0.445061 0.670393
O O12 0.975490 0.927236 0.448372
O O13 0.074184 0.948265 0.617165
O O14 0.805034 0.987444 0.600917
O O15 0.120748 0.584487 0.502420
O O16 0.641297 0.211281 0.153739
#
# Coordination Sequence:
#
# PCOD9574704 Si02
#       8
#     9   9   9   9   9   9   9   9
#     4  12  18  30  52  75 111 149 180 230 292 349
#     4  11  20  37  56  83 107 157 185 237 285 347
#     4  11  20  37  49  84 113 150 188 236 292 350
#     4  10  21  35  52  78 115 158 189 239 283 340
#     4  11  21  30  52  78 117 151 182 237 293 350
#     4  10  22  34  54  79 112 147 196 230 288 355
#     4  11  22  36  58  76 117 147 196 235 285 349
#     4  10  22  33  49  81 112 153 192 232 284 348
#
# _framework density 18.526648999999999
#
# number of rings (size 3 to 8) (size 9 to 14) (size 15 to 20)
#    0.250    1.000    6.250    1.750    3.500    0.000 
#    0.000    0.000    0.000    0.000    0.000    7.000 
#    0.000    0.000    0.000    0.000    0.000    0.000 
#
# Total GULP energy -133785.899096 kJ/mol
# GULP energy per Si atom -5574.412462 kJ/mol
# Density = 1.848448 g / cm^3
# Si number density = 18.526649 Si / 1000 Ang^3
#
#
#
# Elastic Constant Matrix: (Units=GPa)
#
#
# Indices 1 2 3 4 5 6 
#
# 1 43.4230 -1.2496 14.3563 7.8007 5.2662 -0.0008
# 2 -1.2496 43.4252 14.3588 -7.8034 -5.2702 -0.0002
# 3 14.3563 14.3588 124.5432 -0.0045 -0.0045 -0.0017
# 4 7.8007 -7.8034 -0.0045 24.1090 -0.0024 -5.2697
# 5 5.2662 -5.2702 -0.0045 -0.0024 24.1089 7.8018
# 6 -0.0008 -0.0002 -0.0017 -5.2697 7.8018 22.3368
#
#
#
# Elastic Compliance Matrix: (Units=1/GPa)
#
#
# Indices 1 2 3 4 5 6 
#
# 1 0.026262 -0.000532 -0.002966 -0.008671 -0.005854 0.000000
# 2 -0.000532 0.026263 -0.002966 0.008673 0.005857 0.000000
# 3 -0.002966 -0.002966 0.008713 0.000002 0.000001 0.000001
# 4 -0.008671 0.008673 0.000002 0.049651 0.000005 0.011712
# 5 -0.005854 0.005857 0.000001 0.000005 0.049649 -0.017340
# 6 0.000000 0.000000 0.000001 0.011712 -0.017340 0.053589
#
#
# Mechanical properties :
#
#
# Convention : Reuss Voigt Hill
#
# Bulk Modulus (GPa) = 20.69989 29.59138 25.14563
# Shear Modulus (GPa) = 20.56263 26.37266 23.46765
#
# Velocity S-wave (km/s) = 3.33512 3.77702 3.56293
# Velocity P-wave (km/s) = 5.10177 5.91846 5.52522
#
# Compressibility (1/GPa) = 0.04830944
#
# Stress axis : x y z
#
# Youngs Moduli (GPa) = 38.07730 38.07650 114.76765
#
# Poissons Ratio (x) = 0.02026 0.34046
# Poissons Ratio (y) = 0.02026 0.34041
# Poissons Ratio (z) = 0.11296 0.11294
#
# Static dielectric constant tensor:
#      x y z
#    x 1.655830 0.000000 0.000000 
#    y 0.000000 1.655830 0.000000 
#    z 0.000000 0.000000 1.688650 
# 
# From -- ./inp_files/939.got.cif
#   From: 2010.05.17/outbox.cif.g08.bks.cpg/sg146_cif.got.tgz:939.got - 2010.05.20 13:48:23.
