data_PCOD9574610
_publ_section_title
;
Structure prediction by ZEFSAII (Michael W. Deem and Ramdas Pophale) SiO2 
 PCOD9574610
Probable space group: P 32
;
_chemical_formula_sum "Si O2"
_cell_formula_units_Z 21
_cell_length_a 8.673757
_cell_length_b 8.673757
_cell_length_c 12.757782
_cell_angle_alpha 90.000000
_cell_angle_beta 90.000000
_cell_angle_gamma 120.000000
_cell_volume 831.228280
_symmetry_space_group_name_H-M "P 32"
_symmetry_group_IT_number 145
_symmetry_cell_setting 'hexagonal'
loop_
_space_group_symop_operation_xyz
x,y,z
-y,x-y,2/3+z
-x+y,-x,1/3+z
loop_
_atom_site_type_symbol
_atom_site_label
_atom_site_fract_x
_atom_site_fract_y
_atom_site_fract_z
Si Si1 0.415580 0.515589 0.419910
Si Si2 0.761696 0.867055 0.735459
Si Si3 0.656961 0.136770 0.785720
Si Si4 0.452971 0.872429 0.337447
Si Si5 0.951698 0.053285 0.275554
Si Si6 0.258941 0.969507 0.790678
Si Si7 0.572879 0.270475 0.332211
O O1 0.493074 0.720601 0.381646
O O2 0.408229 0.521539 0.546103
O O3 0.207961 0.402022 0.388498
O O4 0.487651 0.385050 0.380836
O O5 0.560763 0.751599 0.697820
O O6 0.809864 0.813448 0.845979
O O7 0.778823 0.055124 0.759518
O O8 0.908609 0.892481 0.650208
O O9 0.628085 0.220760 0.681658
O O10 0.455281 0.021051 0.826405
O O11 0.752634 0.275096 0.878411
O O12 0.531067 0.079119 0.376843
O O13 0.805162 0.869895 0.222542
O O14 0.903433 0.127550 0.378647
#
# Coordination Sequence:
#
# PCOD9574610 Si02
#       7
#     3   3   3   3   3   3   3
#     4  12  27  51  79 115 160 204 273 335 407 501
#     4  11  23  46  72 109 149 206 263 325 403 487
#     4  12  25  46  74 110 155 197 262 330 399 494
#     4  12  28  49  81 113 158 211 265 338 411 496
#     4  10  24  43  77 107 153 204 266 332 405 485
#     4  11  24  45  74 111 149 204 263 328 404 490
#     4  12  27  50  75 115 156 202 262 334 405 485
#
# _framework density 25.263815999999998
#
# number of rings (size 3 to 8) (size 9 to 14) (size 15 to 20)
#    0.000    0.571    2.857    5.143    4.000    3.429 
#    0.000    0.000    0.000    0.000    0.000    0.000 
#    0.000    0.000    0.000    0.000    0.000    0.000 
#
# Total GULP energy -117195.557168 kJ/mol
# GULP energy per Si atom -5580.740818 kJ/mol
# Density = 2.520631 g / cm^3
# Si number density = 25.263816 Si / 1000 Ang^3
#
#
#
# Elastic Constant Matrix: (Units=GPa)
#
#
# Indices 1 2 3 4 5 6 
#
# 1 104.0454 28.1047 32.8680 0.2945 -1.7710 0.0000
# 2 28.1047 104.0454 32.8680 -0.2945 1.7710 0.0000
# 3 32.8680 32.8680 100.0027 0.0000 0.0000 0.0000
# 4 0.2945 -0.2945 0.0000 29.6536 0.0000 1.7710
# 5 -1.7710 1.7710 0.0000 0.0000 29.6536 0.2945
# 6 0.0000 0.0000 0.0000 1.7710 0.2945 37.9704
#
#
#
# Elastic Compliance Matrix: (Units=1/GPa)
#
#
# Indices 1 2 3 4 5 6 
#
# 1 0.011126 -0.002080 -0.002973 -0.000131 0.000789 0.000000
# 2 -0.002080 0.011126 -0.002973 0.000131 -0.000789 0.000000
# 3 -0.002973 -0.002973 0.011954 0.000000 0.000000 0.000000
# 4 -0.000131 0.000131 0.000000 0.033820 0.000000 -0.001577
# 5 0.000789 -0.000789 0.000000 0.000000 0.033820 -0.000262
# 6 0.000000 0.000000 0.000000 -0.001577 -0.000262 0.026412
#
#
# Mechanical properties :
#
#
# Convention : Reuss Voigt Hill
#
# Bulk Modulus (GPa) = 55.08553 55.08610 55.08581
# Shear Modulus (GPa) = 33.25326 33.73901 33.49614
#
# Velocity S-wave (km/s) = 3.63194 3.65837 3.64518
# Velocity P-wave (km/s) = 6.28008 6.30052 6.29031
#
# Compressibility (1/GPa) = 0.01815359
#
# Stress axis : x y z
#
# Youngs Moduli (GPa) = 89.87915 89.87915 83.65297
#
# Poissons Ratio (x) = 0.18694 0.24872
# Poissons Ratio (y) = 0.18694 0.24872
# Poissons Ratio (z) = 0.26723 0.26723
#
# Static dielectric constant tensor:
#      x y z
#    x 2.073920 0.000000 0.000000 
#    y 0.000000 2.073920 0.000000 
#    z 0.000000 0.000000 1.930480 
# 
# From -- ./inp_files/621.got.cif
#   From: 2010.05.17/outbox.cif.g08.bks.cpg/sg145_cif.got.tgz:621.got - 2010.05.20 13:47:28.
