data_PCOD9574142
_publ_section_title
;
Structure prediction by ZEFSAII (Michael W. Deem and Ramdas Pophale) SiO2 
 PCOD9574142
Probable space group: I 41/A C D
;
_chemical_formula_sum "Si O2"
_cell_formula_units_Z 192
_cell_length_a 19.548879
_cell_length_b 19.548879
_cell_length_c 22.212202
_cell_angle_alpha 90.000000
_cell_angle_beta 90.000000
_cell_angle_gamma 90.000000
_cell_volume 8488.585578
_symmetry_space_group_name_H-M "I 41/A C D"
_symmetry_group_IT_number 142
_space_group.IT_coordinate_system_code '2'
_symmetry_cell_setting 'tetragonal'
loop_
_space_group_symop_operation_xyz
x,y,z
1/4-y,3/4+x,1/4+z
-x,1/2-y,z
1/4+y,1/4-x,3/4+z
x,-y,1/2-z
1/2-x,y,-z
3/4+y,1/4+x,1/4-z
1/4-y,1/4-x,1/4-z
-x,-y,-z
3/4+y,1/4-x,3/4-z
x,1/2+y,-z
3/4-y,3/4+x,1/4-z
-x,y,1/2+z
1/2+x,-y,z
1/4-y,3/4-x,3/4+z
3/4+y,3/4+x,3/4+z
1/2+x,1/2+y,1/2+z
3/4-y,1/4+x,3/4+z
1/2-x,-y,1/2+z
3/4+y,3/4-x,1/4+z
1/2+x,1/2-y,-z
-x,1/2+y,1/2-z
1/4+y,3/4+x,3/4-z
3/4-y,3/4-x,3/4-z
1/2-x,1/2-y,1/2-z
1/4+y,3/4-x,1/4-z
1/2+x,y,1/2-z
1/4-y,1/4+x,3/4-z
1/2-x,1/2+y,z
x,1/2-y,1/2+z
3/4-y,1/4-x,1/4+z
1/4+y,1/4+x,1/4+z
loop_
_atom_site_type_symbol
_atom_site_label
_atom_site_fract_x
_atom_site_fract_y
_atom_site_fract_z
Si Si1 0.548364 0.845719 0.760051
Si Si2 0.655918 0.803808 0.135029
Si Si3 0.395166 0.300693 0.246685
Si Si4 0.808545 0.656834 0.907487
Si Si5 0.900326 0.903837 0.122356
Si Si6 0.751716 0.414390 0.073684
O O1 0.576860 0.773962 0.735749
O O2 0.465433 0.845003 0.758048
O O3 0.580837 0.907240 0.722038
O O4 0.575838 0.851010 0.827500
O O5 0.577458 0.827458 0.125000
O O6 0.661504 0.824235 0.204888
O O7 0.669006 0.725234 0.127011
O O8 0.702624 0.847643 0.090059
O O9 0.356971 0.299684 0.183548
O O10 0.842066 0.592066 0.875000
O O11 0.727794 0.653739 0.902921
O O12 0.825041 0.897179 0.094274
O O13 0.781499 0.468502 0.125000
O O14 0.750000 0.429648 0.000000
#
# Coordination Sequence:
#
# PCOD9574142 Si02
#       6
#    32  32  32  32  32  32
#     4  11  25  45  72 104 149 191 247 311 384 444
#     4  11  23  44  77 104 137 191 253 301 367 454
#     4  11  24  46  72 106 144 195 247 310 380 451
#     4  12  26  44  72 106 144 188 244 311 378 448
#     4  12  27  44  71 107 152 189 247 310 379 453
#     4  11  27  50  76 108 151 205 254 304 376 464
#
# _framework density 22.618607999999998
#
# number of rings (size 3 to 8) (size 9 to 14) (size 15 to 20)
#    0.000    0.667    3.333    4.000    4.667    6.333 
#    0.000    0.000    0.000    0.000    0.000    0.000 
#    0.000    0.000    0.000    0.000    0.000    0.000 
#
# Total GULP energy -535811.448222 kJ/mol
# GULP energy per Si atom -5581.369252 kJ/mol
# Density = 2.256713 g / cm^3
# Si number density = 22.618608 Si / 1000 Ang^3
#
#
#
# Elastic Constant Matrix: (Units=GPa)
#
#
# Indices 1 2 3 4 5 6 
#
# 1 86.5252 9.3887 22.9244 0.0000 0.0000 0.0000
# 2 9.3887 86.5250 22.9246 0.0000 0.0000 0.0000
# 3 22.9244 22.9246 172.4496 0.0000 0.0000 0.0000
# 4 0.0000 0.0000 0.0000 6.2561 0.0000 0.0000
# 5 0.0000 0.0000 0.0000 0.0000 6.2552 0.0000
# 6 0.0000 0.0000 0.0000 0.0000 0.0000 29.1076
#
#
#
# Elastic Compliance Matrix: (Units=1/GPa)
#
#
# Indices 1 2 3 4 5 6 
#
# 1 0.012049 -0.000915 -0.001480 0.000000 0.000000 0.000000
# 2 -0.000915 0.012049 -0.001480 0.000000 0.000000 0.000000
# 3 -0.001480 -0.001480 0.006192 0.000000 0.000000 0.000000
# 4 0.000000 0.000000 0.000000 0.159844 0.000000 0.000000
# 5 0.000000 0.000000 0.000000 0.000000 0.159868 0.000000
# 6 0.000000 0.000000 0.000000 0.000000 0.000000 0.034355
#
#
# Mechanical properties :
#
#
# Convention : Reuss Voigt Hill
#
# Bulk Modulus (GPa) = 44.36713 50.66391 47.51552
# Shear Modulus (GPa) = 12.51188 27.67460 20.09324
#
# Velocity S-wave (km/s) = 2.35450 3.50170 2.98375
# Velocity P-wave (km/s) = 5.20091 6.22873 5.73788
#
# Compressibility (1/GPa) = 0.02253921
#
# Stress axis : x y z
#
# Youngs Moduli (GPa) = 82.99610 82.99587 161.49121
#
# Poissons Ratio (x) = 0.07596 0.23901
# Poissons Ratio (y) = 0.07596 0.23901
# Poissons Ratio (z) = 0.12284 0.12284
#
# Static dielectric constant tensor:
#      x y z
#    x 1.835030 0.000000 0.000000 
#    y 0.000000 1.835030 0.000000 
#    z 0.000000 0.000000 2.169140 
# 
# From -- ./inp_files/10443.got.cif
#   From: 2010.05.17/outbox.cif.g08.bks.cpg/sg142_6_cif.got.tgz:10443.got - 2010.05.20 13:39:18.
