data_PCOD9574151
_publ_section_title
;
Structure prediction by ZEFSAII (Michael W. Deem and Ramdas Pophale) SiO2 
 PCOD9574151
Probable space group: I 41/A C D
;
_chemical_formula_sum "Si O2"
_cell_formula_units_Z 160
_cell_length_a 20.033881
_cell_length_b 20.033881
_cell_length_c 18.195439
_cell_angle_alpha 90.000000
_cell_angle_beta 90.000000
_cell_angle_gamma 90.000000
_cell_volume 7302.855674
_symmetry_space_group_name_H-M "I 41/A C D"
_symmetry_group_IT_number 142
_space_group.IT_coordinate_system_code '2'
_symmetry_cell_setting 'tetragonal'
loop_
_space_group_symop_operation_xyz
x,y,z
1/4-y,3/4+x,1/4+z
-x,1/2-y,z
1/4+y,1/4-x,3/4+z
x,-y,1/2-z
1/2-x,y,-z
3/4+y,1/4+x,1/4-z
1/4-y,1/4-x,1/4-z
-x,-y,-z
3/4+y,1/4-x,3/4-z
x,1/2+y,-z
3/4-y,3/4+x,1/4-z
-x,y,1/2+z
1/2+x,-y,z
1/4-y,3/4-x,3/4+z
3/4+y,3/4+x,3/4+z
1/2+x,1/2+y,1/2+z
3/4-y,1/4+x,3/4+z
1/2-x,-y,1/2+z
3/4+y,3/4-x,1/4+z
1/2+x,1/2-y,-z
-x,1/2+y,1/2-z
1/4+y,3/4+x,3/4-z
3/4-y,3/4-x,3/4-z
1/2-x,1/2-y,1/2-z
1/4+y,3/4-x,1/4-z
1/2+x,y,1/2-z
1/4-y,1/4+x,3/4-z
1/2-x,1/2+y,z
x,1/2-y,1/2+z
3/4-y,1/4-x,1/4+z
1/4+y,1/4+x,1/4+z
loop_
_atom_site_type_symbol
_atom_site_label
_atom_site_fract_x
_atom_site_fract_y
_atom_site_fract_z
Si Si1 0.188096 0.891011 0.946898
Si Si2 0.931096 0.419154 0.025842
Si Si3 0.426514 0.577263 0.275219
Si Si4 0.064905 0.923713 0.051087
Si Si5 0.016122 0.629375 0.342442
O O1 0.188035 0.938035 0.875000
O O2 0.182075 0.818451 0.909157
O O3 0.250000 0.899894 0.000000
O O4 0.121641 0.892947 0.998046
O O5 0.930131 0.498083 0.033198
O O6 0.958171 0.388958 0.101439
O O7 0.859267 0.391833 0.004265
O O8 0.990448 0.400120 0.969523
O O9 0.435610 0.500000 0.250000
O O10 0.425209 0.583945 0.362519
O O11 0.482551 0.625313 0.237674
O O12 0.057191 0.692810 0.375000
#
# Coordination Sequence:
#
# PCOD9574151 Si02
#       5
#    32  32  32  32  32
#     4  11  25  46  73 106 143 198 253 310 379 454
#     4  11  25  46  70 101 145 184 244 305 368 455
#     4  12  27  44  72 106 145 193 241 309 384 445
#     4  11  26  45  69 106 144 189 244 306 373 453
#     4  11  23  47  73 103 138 193 248 303 374 441
#
# _framework density 21.909238999999999
#
# number of rings (size 3 to 8) (size 9 to 14) (size 15 to 20)
#    0.000    0.800    6.000    1.200    5.600    2.400 
#    0.000    0.000    0.000    0.000    0.000    0.000 
#    0.000    0.000    0.000    0.000    0.000    0.000 
#
# Total GULP energy -446756.826403 kJ/mol
# GULP energy per Si atom -5584.460330 kJ/mol
# Density = 2.185937 g / cm^3
# Si number density = 21.909239 Si / 1000 Ang^3
#
#
#
# Elastic Constant Matrix: (Units=GPa)
#
#
# Indices 1 2 3 4 5 6 
#
# 1 83.6273 23.3542 38.0997 0.0000 0.0000 0.0000
# 2 23.3542 83.6273 38.0993 0.0000 0.0000 0.0000
# 3 38.0997 38.0993 171.6088 0.0000 0.0000 0.0000
# 4 0.0000 0.0000 0.0000 30.8482 0.0000 0.0000
# 5 0.0000 0.0000 0.0000 0.0000 30.8482 0.0000
# 6 0.0000 0.0000 0.0000 0.0000 0.0000 24.7849
#
#
#
# Elastic Compliance Matrix: (Units=1/GPa)
#
#
# Indices 1 2 3 4 5 6 
#
# 1 0.013847 -0.002744 -0.002465 0.000000 0.000000 0.000000
# 2 -0.002744 0.013847 -0.002465 0.000000 0.000000 0.000000
# 3 -0.002465 -0.002465 0.006922 0.000000 0.000000 0.000000
# 4 0.000000 0.000000 0.000000 0.032417 0.000000 0.000000
# 5 0.000000 0.000000 0.000000 0.000000 0.032417 0.000000
# 6 0.000000 0.000000 0.000000 0.000000 0.000000 0.040347
#
#
# Mechanical properties :
#
#
# Convention : Reuss Voigt Hill
#
# Bulk Modulus (GPa) = 51.89983 59.77442 55.83713
# Shear Modulus (GPa) = 30.94679 33.25028 32.09854
#
# Velocity S-wave (km/s) = 3.76240 3.89991 3.83177
# Velocity P-wave (km/s) = 6.52796 6.90080 6.71697
#
# Compressibility (1/GPa) = 0.01926788
#
# Stress axis : x y z
#
# Youngs Moduli (GPa) = 72.21685 72.21707 144.47192
#
# Poissons Ratio (x) = 0.19816 0.35614
# Poissons Ratio (y) = 0.19816 0.35613
# Poissons Ratio (z) = 0.17802 0.17802
#
# Static dielectric constant tensor:
#      x y z
#    x 1.842760 0.000000 0.000000 
#    y 0.000000 1.842760 0.000000 
#    z 0.000000 0.000000 1.863670 
# 
# From -- ./inp_files/7402.got.cif
#   From: 2010.05.17/outbox.cif.g08.bks.cpg/sg142_4_cif.got.tgz:7402.got - 2010.05.20 13:39:18.
