data_PCOD9574940
_publ_section_title
;
Structure prediction by ZEFSAII (Michael W. Deem and Ramdas Pophale) SiO2 
 PCOD9574940
Probable space group: P -3
;
_chemical_formula_sum "Si O2"
_cell_formula_units_Z 42
_cell_length_a 16.577498
_cell_length_b 16.577498
_cell_length_c 9.003056
_cell_angle_alpha 90.000000
_cell_angle_beta 90.000000
_cell_angle_gamma 120.000000
_cell_volume 2142.686097
_symmetry_space_group_name_H-M "P -3"
_symmetry_group_IT_number 147
_symmetry_cell_setting 'hexagonal'
loop_
_space_group_symop_operation_xyz
x,y,z
-y,x-y,z
-x+y,-x,z
-x,-y,-z
y,-x+y,-z
x-y,x,-z
loop_
_atom_site_type_symbol
_atom_site_label
_atom_site_fract_x
_atom_site_fract_y
_atom_site_fract_z
Si Si1 0.134178 0.539978 0.172258
Si Si2 0.449612 0.158775 0.452536
Si Si3 0.144728 0.512793 0.510587
Si Si4 0.922525 0.642582 0.022264
Si Si5 0.227757 0.656739 0.918211
Si Si6 0.104606 0.741525 0.848113
Si Si7 0.601111 0.976243 0.300431
O O1 0.159238 0.520620 0.333833
O O2 0.212153 0.634583 0.094051
O O3 0.048921 0.556714 0.209625
O O4 0.108653 0.455799 0.059821
O O5 0.487794 0.267534 0.433482
O O6 0.542678 0.150567 0.434053
O O7 0.368235 0.109005 0.330461
O O8 0.412908 0.115903 0.616349
O O9 0.045292 0.431303 0.565237
O O10 0.832851 0.651231 0.064074
O O11 0.973572 0.654089 0.179698
O O12 0.003998 0.712992 0.911861
O O13 0.252067 0.576821 0.870291
O O14 0.139719 0.666304 0.877342
#
# Coordination Sequence:
#
# PCOD9574940 Si02
#       7
#     6   6   6   6   6   6   6
#     4  11  22  37  61  85 125 168 206 255 294 356
#     4  11  25  39  58  86 125 169 207 252 297 360
#     4  11  24  38  58  83 123 165 212 247 298 359
#     4  12  24  41  66  91 119 161 210 264 315 371
#     4  10  22  33  55  89 124 162 207 245 287 347
#     4  12  25  42  63  90 123 161 209 261 316 367
#     4  11  23  42  55  86 120 163 207 249 309 355
#
# _framework density 19.601564
#
# number of rings (size 3 to 8) (size 9 to 14) (size 15 to 20)
#    0.286    0.571    4.286    4.143   10.000    0.000 
#    0.000    0.000    0.000    0.286    0.000    0.000 
#    0.000    1.143    0.000    0.000    0.000    0.000 
#
# Total GULP energy -234082.350251 kJ/mol
# GULP energy per Si atom -5573.389292 kJ/mol
# Density = 1.955695 g / cm^3
# Si number density = 19.601564 Si / 1000 Ang^3
#
#
#
# Elastic Constant Matrix: (Units=GPa)
#
#
# Indices 1 2 3 4 5 6 
#
# 1 62.4223 16.6952 27.8480 -9.0152 -11.2554 0.0000
# 2 16.6952 62.4223 27.8480 9.0152 11.2554 0.0000
# 3 27.8480 27.8480 91.6973 0.0000 0.0000 0.0000
# 4 -9.0152 9.0152 0.0000 2.9410 0.0000 11.2554
# 5 -11.2554 11.2554 0.0000 0.0000 2.9410 -9.0152
# 6 0.0000 0.0000 0.0000 11.2554 -9.0152 22.8636
#
#
#
# Elastic Compliance Matrix: (Units=1/GPa)
#
#
# Indices 1 2 3 4 5 6 
#
# 1 0.002813 0.013263 -0.004882 -0.032034 -0.039994 0.000000
# 2 0.013263 0.002813 -0.004882 0.032034 0.039994 0.000000
# 3 -0.004882 -0.004882 0.013871 0.000000 0.000000 0.000000
# 4 -0.032034 0.032034 0.000000 -0.162482 0.000000 0.079987
# 5 -0.039994 0.039994 0.000000 0.000000 -0.162482 -0.064067
# 6 0.000000 0.000000 0.000000 0.079987 -0.064067 -0.020901
#
#
# Mechanical properties :
#
#
# Convention : Reuss Voigt Hill
#
# Bulk Modulus (GPa) = 37.74375 40.14714 38.94545
# Shear Modulus (GPa) = -15.40677 15.35917 -0.02380
#
# Velocity S-wave (km/s) = -2.80661 2.80227 -0.11030
# Velocity P-wave (km/s) = 2.96556 5.56743 4.46043
#
# Compressibility (1/GPa) = 0.02649445
#
# Stress axis : x y z
#
# Youngs Moduli (GPa) = 355.48775 355.48776 72.09327
#
# Poissons Ratio (x) = -4.71497 0.35198
# Poissons Ratio (y) = -4.71497 0.35198
# Poissons Ratio (z) = 1.73561 1.73561
#
# Static dielectric constant tensor:
#      x y z
#    x 1.712830 0.000000 0.000000 
#    y 0.000000 1.712830 0.000000 
#    z 0.000000 0.000000 1.775150 
# 
# From -- ./inp_files/638.got.cif
#   From: 2010.05.17/outbox.cif.g08.bks.cpg/sg147_cif.got.tgz:638.got - 2010.05.20 13:49:32.
