data_PCOD9575040
_publ_section_title
;
Structure prediction by ZEFSAII (Michael W. Deem and Ramdas Pophale) SiO2 
 PCOD9575040
Probable space group: R -3
;
_chemical_formula_sum "Si O2"
_cell_formula_units_Z 108
_cell_length_a 15.466206
_cell_length_b 15.466206
_cell_length_c 25.601279
_cell_angle_alpha 90.000000
_cell_angle_beta 90.000000
_cell_angle_gamma 120.000000
_cell_volume 5303.467051
_symmetry_space_group_name_H-M "R -3"
_symmetry_group_IT_number 148
_symmetry_cell_setting 'hexagonal'
loop_
_space_group_symop_operation_xyz
x,y,z
-y,x-y,z
-x+y,-x,z
-x,-y,-z
y,-x+y,-z
x-y,x,-z
2/3+x,1/3+y,1/3+z
2/3-y,1/3+x-y,1/3+z
2/3-x+y,1/3-x,1/3+z
2/3-x,1/3-y,1/3-z
2/3+y,1/3-x+y,1/3-z
2/3+x-y,1/3+x,1/3-z
1/3+x,2/3+y,2/3+z
1/3-y,2/3+x-y,2/3+z
1/3-x+y,2/3-x,2/3+z
1/3-x,2/3-y,2/3-z
1/3+y,2/3-x+y,2/3-z
1/3+x-y,2/3+x,2/3-z
loop_
_atom_site_type_symbol
_atom_site_label
_atom_site_fract_x
_atom_site_fract_y
_atom_site_fract_z
Si Si1 0.502974 0.650325 0.536341
Si Si2 0.703475 0.859104 0.442411
Si Si3 0.694687 0.534301 0.317563
Si Si4 0.138292 0.479985 0.827222
Si Si5 0.922470 0.731333 0.445558
Si Si6 0.050017 0.346452 0.067326
O O1 0.477264 0.597868 0.592695
O O2 0.479447 0.740080 0.528438
O O3 0.436594 0.561758 0.496171
O O4 0.623119 0.712132 0.540698
O O5 0.599266 0.852342 0.460033
O O6 0.757251 0.855785 0.496506
O O7 0.691253 0.767369 0.408276
O O8 0.772342 0.970126 0.421729
O O9 0.769889 0.516177 0.351990
O O10 0.685613 0.621765 0.345775
O O11 0.063704 0.404565 0.783102
O O12 0.835037 0.721920 0.408622
#
# Coordination Sequence:
#
# PCOD9575040 Si02
#       6
#    18  18  18  18  18  18
#     4  10  19  32  51  83 110 143 177 221 280 342
#     4  10  19  36  52  77 112 141 181 234 272 340
#     4  12  19  32  54  84 120 142 180 233 294 337
#     4  10  19  32  53  79 115 141 177 224 278 338
#     4  10  19  34  54  77 109 135 185 226 284 333
#     4  10  20  34  52  80 111 143 178 232 286 341
#
# _framework density 20.364035999999999
#
# number of rings (size 3 to 8) (size 9 to 14) (size 15 to 20)
#    0.000    2.000    8.333    0.500    0.000    0.667 
#    1.000    1.667    0.000    0.000    0.000    0.000 
#   10.000    0.000    0.000    0.000    0.000    0.000 
#
# Total GULP energy -200495.259412 kJ/mol
# GULP energy per Si atom -5569.312761 kJ/mol
# Density = 2.031769 g / cm^3
# Si number density = 20.364036 Si / 1000 Ang^3
#
#
#
# Elastic Constant Matrix: (Units=GPa)
#
#
# Indices 1 2 3 4 5 6 
#
# 1 85.4982 46.4555 2.0033 5.3029 4.0063 0.0000
# 2 46.4555 85.4982 2.0033 -5.3029 -4.0063 0.0000
# 3 2.0033 2.0033 18.0899 0.0000 0.0000 0.0000
# 4 5.3029 -5.3029 0.0000 2.5280 0.0000 -4.0063
# 5 4.0063 -4.0063 0.0000 0.0000 2.5280 5.3029
# 6 0.0000 0.0000 0.0000 -4.0063 5.3029 19.5213
#
#
#
# Elastic Compliance Matrix: (Units=1/GPa)
#
#
# Indices 1 2 3 4 5 6 
#
# 1 0.125815 -0.118211 -0.000842 -0.511876 -0.386720 0.000000
# 2 -0.118211 0.125815 -0.000842 0.511876 0.386720 0.000000
# 3 -0.000842 -0.000842 0.055466 0.000000 0.000000 0.000000
# 4 -0.511876 0.511876 0.000000 3.768730 0.000000 0.773439
# 5 -0.386720 0.386720 0.000000 0.000000 3.768729 -1.023753
# 6 0.000000 0.000000 0.000000 0.773439 -1.023753 0.488052
#
#
# Mechanical properties :
#
#
# Convention : Reuss Voigt Hill
#
# Bulk Modulus (GPa) = 14.85763 32.22341 23.54052
# Shear Modulus (GPa) = 0.58174 14.15709 7.36942
#
# Velocity S-wave (km/s) = 0.53506 2.63953 1.90439
# Velocity P-wave (km/s) = 2.77373 5.01473 4.05223
#
# Compressibility (1/GPa) = 0.06730547
#
# Stress axis : x y z
#
# Youngs Moduli (GPa) = 7.94818 7.94818 18.02911
#
# Poissons Ratio (x) = 0.93956 0.01518
# Poissons Ratio (y) = 0.93956 0.01518
# Poissons Ratio (z) = 0.00669 0.00669
#
# Static dielectric constant tensor:
#      x y z
#    x 1.777000 0.000000 0.000000 
#    y 0.000000 1.777000 0.000000 
#    z 0.000000 0.000000 1.766790 
# 
# From -- ./inp_files/3987.got.cif
#   From: 2010.05.17/outbox.cif.g08.bks.cpg/sg148_2_cif.got.tgz:3987.got - 2010.05.20 13:50:20.
