data_PCOD9575783
_publ_section_title
;
Structure prediction by ZEFSAII (Michael W. Deem and Ramdas Pophale) SiO2 
 PCOD9575783
Probable space group: P 31 2 1
;
_chemical_formula_sum "Si O2"
_cell_formula_units_Z 15
_cell_length_a 7.390207
_cell_length_b 7.390207
_cell_length_c 12.484683
_cell_angle_alpha 90.000000
_cell_angle_beta 90.000000
_cell_angle_gamma 120.000000
_cell_volume 590.501979
_symmetry_space_group_name_H-M "P 31 2 1"
_symmetry_group_IT_number 152
_symmetry_cell_setting 'hexagonal'
loop_
_space_group_symop_operation_xyz
x,y,z
-y,x-y,1/3+z
-x+y,-x,2/3+z
x-y,-y,2/3-z
-x,-x+y,1/3-z
y,x,-z
loop_
_atom_site_type_symbol
_atom_site_label
_atom_site_fract_x
_atom_site_fract_y
_atom_site_fract_z
Si Si1 0.000000 0.788458 0.166667
Si Si2 0.276748 0.575999 0.191812
Si Si3 0.684753 0.747459 0.318927
O O1 0.813745 0.549080 0.146194
O O2 0.901430 0.870784 0.254574
O O3 0.514265 0.682455 0.225265
O O4 0.145896 0.430641 0.290832
O O5 0.223242 0.430608 0.085579
#
# Coordination Sequence:
#
# PCOD9575783 Si02
#       3
#     3   6   6
#     4  10  20  38  72 104 146 204 252 308 390 458
#     4  10  19  35  67 109 151 198 255 322 372 457
#     4  10  19  37  68 108 149 203 257 308 390 449
#
# _framework density 25.402117000000001
#
# number of rings (size 3 to 8) (size 9 to 14) (size 15 to 20)
#    0.000    2.400    8.000    0.000    0.000    0.000 
#    0.000    2.000    0.000   21.600   20.800    0.000 
#    0.000    0.000    0.000    0.000    0.000    0.000 
#
# Total GULP energy -83549.336248 kJ/mol
# GULP energy per Si atom -5569.955750 kJ/mol
# Density = 2.534430 g / cm^3
# Si number density = 25.402117 Si / 1000 Ang^3
#
#
#
# Elastic Constant Matrix: (Units=GPa)
#
#
# Indices 1 2 3 4 5 6 
#
# 1 98.9202 83.5943 102.7286 -19.7190 -0.0004 0.0000
# 2 83.5943 98.9202 102.7286 19.7190 0.0004 0.0000
# 3 102.7286 102.7286 179.3694 0.0000 0.0000 0.0000
# 4 -19.7190 19.7190 0.0000 44.3182 0.0000 0.0004
# 5 -0.0004 0.0004 0.0000 0.0000 44.3182 -19.7190
# 6 0.0000 0.0000 0.0000 0.0004 -19.7190 7.6629
#
#
#
# Elastic Compliance Matrix: (Units=1/GPa)
#
#
# Indices 1 2 3 4 5 6 
#
# 1 -0.217337 0.232758 -0.008832 -0.200266 -0.000004 0.000000
# 2 0.232758 -0.217337 -0.008832 0.200266 0.000004 0.000000
# 3 -0.008832 -0.008832 0.015692 0.000000 0.000000 0.000000
# 4 -0.200266 0.200266 0.000000 -0.155649 0.000000 0.000008
# 5 -0.000004 0.000004 0.000000 0.000000 -0.155649 -0.400531
# 6 0.000000 0.000000 0.000000 0.000008 -0.400531 -0.900190
#
#
# Mechanical properties :
#
#
# Convention : Reuss Voigt Hill
#
# Bulk Modulus (GPa) = 89.23805 106.14586 97.69196
# Shear Modulus (GPa) = -2.43082 25.13707 11.35313
#
# Velocity S-wave (km/s) = -0.97929 3.14915 2.11638
# Velocity P-wave (km/s) = 5.82475 7.42292 6.67186
#
# Compressibility (1/GPa) = 0.01120598
#
# Stress axis : x y z
#
# Youngs Moduli (GPa) = -4.60116 -4.60116 63.72755
#
# Poissons Ratio (x) = 1.07096 0.56285
# Poissons Ratio (y) = 1.07096 0.56285
# Poissons Ratio (z) = -0.04064 -0.04064
#
# Static dielectric constant tensor:
#      x y z
#    x 2.076370 0.000000 0.000000 
#    y 0.000000 2.076370 0.000000 
#    z 0.000000 0.000000 1.751800 
# 
# From -- ./inp_files/1390.got.cif
#   From: 2010.05.17/outbox.cif.g08.bks.cpg/sg152_1_cif.got.tgz:1390.got - 2010.05.20 10:36:06.
