data_PCOD9575247
_publ_section_title
;
Structure prediction by ZEFSAII (Michael W. Deem and Ramdas Pophale) SiO2 
 PCOD9575247
Probable space group: R -3
;
_chemical_formula_sum "Si O2"
_cell_formula_units_Z 108
_cell_length_a 20.967965
_cell_length_b 20.967965
_cell_length_c 12.472812
_cell_angle_alpha 90.000000
_cell_angle_beta 90.000000
_cell_angle_gamma 120.000000
_cell_volume 4749.059098
_symmetry_space_group_name_H-M "R -3"
_symmetry_group_IT_number 148
_symmetry_cell_setting 'hexagonal'
loop_
_space_group_symop_operation_xyz
x,y,z
-y,x-y,z
-x+y,-x,z
-x,-y,-z
y,-x+y,-z
x-y,x,-z
2/3+x,1/3+y,1/3+z
2/3-y,1/3+x-y,1/3+z
2/3-x+y,1/3-x,1/3+z
2/3-x,1/3-y,1/3-z
2/3+y,1/3-x+y,1/3-z
2/3+x-y,1/3+x,1/3-z
1/3+x,2/3+y,2/3+z
1/3-y,2/3+x-y,2/3+z
1/3-x+y,2/3-x,2/3+z
1/3-x,2/3-y,2/3-z
1/3+y,2/3-x+y,2/3-z
1/3+x-y,2/3+x,2/3-z
loop_
_atom_site_type_symbol
_atom_site_label
_atom_site_fract_x
_atom_site_fract_y
_atom_site_fract_z
Si Si1 0.836215 0.287849 0.032631
Si Si2 0.982736 0.401524 0.962664
Si Si3 0.466454 0.844178 0.500825
Si Si4 0.224922 0.125750 0.947990
Si Si5 0.875142 0.683303 0.492888
Si Si6 0.325360 0.256792 0.105340
O O1 0.758152 0.266213 0.084661
O O2 0.882279 0.271782 0.123496
O O3 0.897375 0.368470 0.994741
O O4 0.826110 0.239825 0.927139
O O5 0.998014 0.463134 0.876930
O O6 0.002865 0.342200 0.918609
O O7 0.028666 0.436447 0.071106
O O8 0.508706 0.799702 0.523108
O O9 0.436217 0.846308 0.618500
O O10 0.528243 0.926774 0.462613
O O11 0.273045 0.091682 0.901899
O O12 0.282732 0.203541 0.005283
#
# Coordination Sequence:
#
# PCOD9575247 Si02
#       6
#    18  18  18  18  18  18
#     4  11  22  37  60  87 121 170 211 245 314 390
#     4  11  25  37  57  92 131 163 199 256 311 381
#     4  11  22  37  60  85 121 165 215 258 309 376
#     4  11  22  38  58  90 120 163 213 257 308 376
#     4  11  23  38  57  89 128 168 211 244 312 392
#     4  11  20  36  58  88 126 164 197 242 312 388
#
# _framework density 22.741346
#
# number of rings (size 3 to 8) (size 9 to 14) (size 15 to 20)
#    0.000    1.000    5.000    3.000    7.000    0.000 
#    0.000    0.000    0.000    0.333    0.000    0.000 
#    0.000    1.333    0.000    0.000    0.000    0.000 
#
# Total GULP energy -201145.123125 kJ/mol
# GULP energy per Si atom -5587.364531 kJ/mol
# Density = 2.268959 g / cm^3
# Si number density = 22.741346 Si / 1000 Ang^3
#
#
#
# Elastic Constant Matrix: (Units=GPa)
#
#
# Indices 1 2 3 4 5 6 
#
# 1 58.7884 8.7817 20.3705 -9.8854 3.7772 0.0000
# 2 8.7817 58.7884 20.3705 9.8854 -3.7772 0.0000
# 3 20.3705 20.3705 138.6541 0.0000 0.0000 0.0000
# 4 -9.8854 9.8854 0.0000 32.8700 0.0000 -3.7772
# 5 3.7772 -3.7772 0.0000 0.0000 32.8700 -9.8854
# 6 0.0000 0.0000 0.0000 -3.7772 -9.8854 25.0033
#
#
#
# Elastic Compliance Matrix: (Units=1/GPa)
#
#
# Indices 1 2 3 4 5 6 
#
# 1 0.019695 -0.003457 -0.002386 0.006963 -0.002661 0.000000
# 2 -0.003457 0.019695 -0.002386 -0.006963 0.002661 0.000000
# 3 -0.002386 -0.002386 0.007913 0.000000 0.000000 0.000000
# 4 0.006963 -0.006963 0.000000 0.035222 0.000000 0.005321
# 5 -0.002661 0.002661 0.000000 0.000000 0.035222 0.013926
# 6 0.000000 0.000000 0.000000 0.005321 0.013926 0.046304
#
#
# Mechanical properties :
#
#
# Convention : Reuss Voigt Hill
#
# Bulk Modulus (GPa) = 32.41867 39.47516 35.94692
# Shear Modulus (GPa) = 26.20671 31.92921 29.06796
#
# Velocity S-wave (km/s) = 3.39836 3.75108 3.57907
# Velocity P-wave (km/s) = 5.44837 6.01306 5.73767
#
# Compressibility (1/GPa) = 0.03084642
#
# Stress axis : x y z
#
# Youngs Moduli (GPa) = 50.77438 50.77438 126.37180
#
# Poissons Ratio (x) = 0.17553 0.30147
# Poissons Ratio (y) = 0.17553 0.30147
# Poissons Ratio (z) = 0.12113 0.12113
#
# Static dielectric constant tensor:
#      x y z
#    x 1.939730 0.000000 0.000000 
#    y 0.000000 1.939730 0.000000 
#    z 0.000000 0.000000 1.852180 
# 
# From -- ./inp_files/1548.got.cif
#   From: 2010.05.17/outbox.cif.g08.bks.cpg/sg148_1_cif.got.tgz:1548.got - 2010.05.20 13:50:20.
