data_PCOD9575476
_publ_section_title
;
Structure prediction by ZEFSAII (Michael W. Deem and Ramdas Pophale) SiO2 
 PCOD9575476
Probable space group: P 3 2 1
;
_chemical_formula_sum "Si O2"
_cell_formula_units_Z 32
_cell_length_a 14.830143
_cell_length_b 14.830143
_cell_length_c 8.577005
_cell_angle_alpha 90.000000
_cell_angle_beta 90.000000
_cell_angle_gamma 120.000000
_cell_volume 1633.642309
_symmetry_space_group_name_H-M "P 3 2 1"
_symmetry_group_IT_number 150
_symmetry_cell_setting 'hexagonal'
loop_
_space_group_symop_operation_xyz
x,y,z
-y,x-y,z
-x+y,-x,z
x-y,-y,-z
-x,-x+y,-z
y,x,-z
loop_
_atom_site_type_symbol
_atom_site_label
_atom_site_fract_x
_atom_site_fract_y
_atom_site_fract_z
Si Si1 0.731155 0.561936 0.684229
Si Si2 0.000000 0.000000 0.308638
Si Si3 0.438064 0.169220 0.315771
Si Si4 0.608438 0.120625 0.818277
Si Si5 0.000000 0.208096 0.689394
Si Si6 0.608438 0.120625 0.181723
O O1 0.709931 0.558393 0.500000
O O2 0.807220 0.517085 0.718398
O O3 0.623028 0.488003 0.769762
O O4 0.782602 0.682262 0.735854
O O5 0.895407 0.895407 0.256977
O O6 0.000000 0.000000 0.500000
O O7 0.511997 0.135025 0.230238
O O8 0.482915 0.290135 0.281602
O O9 0.317738 0.100340 0.264146
O O10 0.572516 1.000000 0.797162
O O11 0.632787 0.148396 0.000000
O O12 0.000000 0.204065 0.500000
#
# Coordination Sequence:
#
# PCOD9575476 Si02
#       6
#     6   2   6   6   6   6
#     4  11  22  39  63  93 124 157 202 257 307 365
#     4   9  18  36  57  87 124 158 193 243 304 365
#     4  11  22  39  63  93 124 157 202 257 307 365
#     4  11  24  41  61  88 123 165 204 246 306 374
#     4   9  20  36  60  91 124 156 195 247 308 359
#     4  11  24  41  61  88 123 165 204 246 306 374
#
# _framework density 19.58813
#
# number of rings (size 3 to 8) (size 9 to 14) (size 15 to 20)
#    0.000    1.500    1.875    3.000    2.625    2.250 
#    0.000    0.000    0.000    0.000    0.000    0.000 
#    0.000    0.000    0.000    0.000    0.000    0.000 
#
# Total GULP energy -178831.800290 kJ/mol
# GULP energy per Si atom -5588.493759 kJ/mol
# Density = 1.954355 g / cm^3
# Si number density = 19.588130 Si / 1000 Ang^3
#
#
#
# Elastic Constant Matrix: (Units=GPa)
#
#
# Indices 1 2 3 4 5 6 
#
# 1 97.1495 39.4560 -8.9788 0.0000 0.0000 0.0000
# 2 39.4560 97.1495 -8.9788 0.0000 0.0000 0.0000
# 3 -8.9788 -8.9788 9.7536 0.0000 0.0000 0.0000
# 4 0.0000 0.0000 0.0000 -10.5645 0.0000 0.0000
# 5 0.0000 0.0000 0.0000 0.0000 -10.5645 0.0000
# 6 0.0000 0.0000 0.0000 0.0000 0.0000 28.8468
#
#
#
# Elastic Compliance Matrix: (Units=1/GPa)
#
#
# Indices 1 2 3 4 5 6 
#
# 1 0.012831 -0.004502 0.007667 0.000000 0.000000 0.000000
# 2 -0.004502 0.012831 0.007667 0.000000 0.000000 0.000000
# 3 0.007667 0.007667 0.116641 0.000000 0.000000 0.000000
# 4 0.000000 0.000000 0.000000 -0.094656 0.000000 0.000000
# 5 0.000000 0.000000 0.000000 0.000000 -0.094656 0.000000
# 6 0.000000 0.000000 0.000000 0.000000 0.000000 0.034666
#
#
# Mechanical properties :
#
#
# Convention : Reuss Voigt Hill
#
# Bulk Modulus (GPa) = 6.09891 27.44993 16.77442
# Shear Modulus (GPa) = 242.14744 13.71382 127.93063
#
# Velocity S-wave (km/s) = 11.13049 2.64883 8.09025
# Velocity P-wave (km/s) = 12.97321 4.83725 9.79038
#
# Compressibility (1/GPa) = 0.16396370
#
# Stress axis : x y z
#
# Youngs Moduli (GPa) = 77.93886 77.93886 8.57331
#
# Poissons Ratio (x) = 0.35091 -0.06573
# Poissons Ratio (y) = 0.35091 -0.06573
# Poissons Ratio (z) = -0.59752 -0.59752
#
# Static dielectric constant tensor:
#      x y z
#    x 1.668630 0.000000 0.000000 
#    y 0.000000 1.668630 0.000000 
#    z 0.000000 0.000000 1.658130 
# 
# From -- ./inp_files/642.got.cif
#   From: 2010.05.17/outbox.cif.g08.bks.cpg/sg150_cif.got.tgz:642.got - 2010.05.20 13:53:18.
