data_PCOD9575826
_publ_section_title
;
Structure prediction by ZEFSAII (Michael W. Deem and Ramdas Pophale) SiO2 
 PCOD9575826
Probable space group: P 31 2 1
;
_chemical_formula_sum "Si O2"
_cell_formula_units_Z 42
_cell_length_a 9.289002
_cell_length_b 9.289002
_cell_length_c 28.189225
_cell_angle_alpha 90.000000
_cell_angle_beta 90.000000
_cell_angle_gamma 120.000000
_cell_volume 2106.453520
_symmetry_space_group_name_H-M "P 31 2 1"
_symmetry_group_IT_number 152
_symmetry_cell_setting 'hexagonal'
loop_
_space_group_symop_operation_xyz
x,y,z
-y,x-y,1/3+z
-x+y,-x,2/3+z
x-y,-y,2/3-z
-x,-x+y,1/3-z
y,x,-z
loop_
_atom_site_type_symbol
_atom_site_label
_atom_site_fract_x
_atom_site_fract_y
_atom_site_fract_z
Si Si1 0.620821 0.415351 0.087614
Si Si2 0.514245 0.190564 0.827704
Si Si3 0.736140 0.115526 0.249736
Si Si4 0.483084 0.651626 0.329426
Si Si5 0.210480 0.061078 0.387528
Si Si6 0.892943 0.109845 0.089830
Si Si7 0.655684 0.814224 0.685197
O O1 0.693030 0.376646 0.134119
O O2 0.432450 0.377429 0.090710
O O3 0.614702 0.296271 0.045535
O O4 0.744413 0.604171 0.072809
O O5 0.506848 0.260074 0.878749
O O6 0.361452 0.176337 0.795534
O O7 0.471311 0.000000 0.833334
O O8 0.757200 0.189010 0.302664
O O9 0.906613 0.115208 0.239149
O O10 0.343522 0.497243 0.358976
O O11 0.627044 0.620303 0.308532
O O12 0.144978 0.192073 0.382208
O O13 0.204966 0.000000 0.333334
O O14 0.085302 0.910791 0.421223
O O15 0.855227 0.150932 0.037169
#
# Coordination Sequence:
#
# PCOD9575826 Si02
#       7
#     6   6   6   6   6   6   6
#     4  12  23  41  63  96 124 158 211 258 310 369
#     4  10  23  44  64  82 125 175 206 249 315 380
#     4  10  23  40  64  88 125 164 205 256 311 366
#     4  11  21  38  64  95 125 162 205 263 314 369
#     4  10  21  35  62  94 126 156 206 264 311 368
#     4   9  19  42  62  84 125 169 203 246 317 372
#     4  10  20  34  62  98 124 159 208 257 315 366
#
# _framework density 19.938725000000002
#
# number of rings (size 3 to 8) (size 9 to 14) (size 15 to 20)
#    0.000    1.714    1.429    3.000    4.000    4.571 
#    2.571    3.571    0.000    0.000    0.000    0.000 
#    0.000    0.000    0.000    0.000    0.000    0.000 
#
# Total GULP energy -234542.898809 kJ/mol
# GULP energy per Si atom -5584.354734 kJ/mol
# Density = 1.989334 g / cm^3
# Si number density = 19.938725 Si / 1000 Ang^3
#
#
#
# Elastic Constant Matrix: (Units=GPa)
#
#
# Indices 1 2 3 4 5 6 
#
# 1 82.2919 41.7923 -0.1442 -6.6601 -0.0002 0.0000
# 2 41.7923 82.2919 -0.1442 6.6601 0.0002 0.0000
# 3 -0.1442 -0.1442 20.3990 0.0000 0.0000 0.0000
# 4 -6.6601 6.6601 0.0000 23.6895 0.0000 0.0002
# 5 -0.0002 0.0002 0.0000 0.0000 23.6895 -6.6601
# 6 0.0000 0.0000 0.0000 0.0002 -6.6601 20.2498
#
#
#
# Elastic Compliance Matrix: (Units=1/GPa)
#
#
# Indices 1 2 3 4 5 6 
#
# 1 0.017633 -0.009574 0.000057 0.007649 0.000000 0.000000
# 2 -0.009574 0.017633 0.000057 -0.007649 0.000000 0.000000
# 3 0.000057 0.000057 0.049023 0.000000 0.000000 0.000000
# 4 0.007649 -0.007649 0.000000 0.046514 0.000000 0.000000
# 5 0.000000 0.000000 0.000000 0.000000 0.046514 0.015298
# 6 0.000000 0.000000 0.000000 0.000000 0.015298 0.054415
#
#
# Mechanical properties :
#
#
# Convention : Reuss Voigt Hill
#
# Bulk Modulus (GPa) = 15.29780 29.77676 22.53728
# Shear Modulus (GPa) = 18.35260 23.09103 20.72181
#
# Velocity S-wave (km/s) = 3.03718 3.40678 3.22728
# Velocity P-wave (km/s) = 4.47084 5.51737 5.02144
#
# Compressibility (1/GPa) = 0.06536887
#
# Stress axis : x y z
#
# Youngs Moduli (GPa) = 56.71112 56.71112 20.39871
#
# Poissons Ratio (x) = 0.54296 -0.00116
# Poissons Ratio (y) = 0.54296 -0.00116
# Poissons Ratio (z) = -0.00323 -0.00323
#
# Static dielectric constant tensor:
#      x y z
#    x 1.719290 0.000000 0.000000 
#    y 0.000000 1.719290 0.000000 
#    z 0.000000 0.000000 1.686340 
# 
# From -- ./inp_files/3729.got.cif
#   From: 2010.05.17/outbox.cif.g08.bks.cpg/sg152_2_cif.got.tgz:3729.got - 2010.05.20 10:36:06.
