data_PCOD9575295
_publ_section_title
;
Structure prediction by ZEFSAII (Michael W. Deem and Ramdas Pophale) SiO2 
 PCOD9575295
Probable space group: R -3
;
_chemical_formula_sum "Si O2"
_cell_formula_units_Z 60
_cell_length_a 17.865476
_cell_length_b 17.865476
_cell_length_c 10.554910
_cell_angle_alpha 90.000000
_cell_angle_beta 90.000000
_cell_angle_gamma 120.000000
_cell_volume 2917.523413
_symmetry_space_group_name_H-M "R -3"
_symmetry_group_IT_number 148
_symmetry_cell_setting 'hexagonal'
loop_
_space_group_symop_operation_xyz
x,y,z
-y,x-y,z
-x+y,-x,z
-x,-y,-z
y,-x+y,-z
x-y,x,-z
2/3+x,1/3+y,1/3+z
2/3-y,1/3+x-y,1/3+z
2/3-x+y,1/3-x,1/3+z
2/3-x,1/3-y,1/3-z
2/3+y,1/3-x+y,1/3-z
2/3+x-y,1/3+x,1/3-z
1/3+x,2/3+y,2/3+z
1/3-y,2/3+x-y,2/3+z
1/3-x+y,2/3-x,2/3+z
1/3-x,2/3-y,2/3-z
1/3+y,2/3-x+y,2/3-z
1/3+x-y,2/3+x,2/3-z
loop_
_atom_site_type_symbol
_atom_site_label
_atom_site_fract_x
_atom_site_fract_y
_atom_site_fract_z
Si Si1 0.322905 0.238575 0.821373
Si Si2 0.000000 0.000000 0.649379
Si Si3 0.530755 0.724519 0.362074
Si Si4 0.263151 0.376149 0.781710
O O1 0.421527 0.275026 0.770919
O O2 0.258126 0.156045 0.739435
O O3 0.304228 0.315496 0.798816
O O4 0.292192 0.207883 0.964435
O O5 0.935224 0.901308 0.687973
O O6 0.000000 0.000000 0.500000
O O7 0.532766 0.659362 0.467726
O O8 0.166667 0.333334 0.833334
#
# Coordination Sequence:
#
# PCOD9575295 Si02
#       4
#    18   6  18  18
#     4  11  25  45  72 106 142 184 239 297 357 426
#     4  12  30  45  73 101 148 195 231 301 365 436
#     4  11  27  47  69 109 145 188 244 297 364 435
#     4  12  24  43  73 103 141 190 235 293 359 428
#
# _framework density 20.565387000000001
#
# number of rings (size 3 to 8) (size 9 to 14) (size 15 to 20)
#    0.000    0.600    3.000    3.600    8.400    0.000 
#    0.000    1.500    0.000    0.000    0.000    0.000 
#    0.000    0.000    0.000    0.000    0.000    0.000 
#
# Total GULP energy -111622.676516 kJ/mol
# GULP energy per Si atom -5581.133826 kJ/mol
# Density = 2.051858 g / cm^3
# Si number density = 20.565387 Si / 1000 Ang^3
#
#
#
# Elastic Constant Matrix: (Units=GPa)
#
#
# Indices 1 2 3 4 5 6 
#
# 1 134.8566 65.1752 26.2595 -4.4445 8.0609 0.0000
# 2 65.1752 134.8566 26.2595 4.4445 -8.0609 0.0000
# 3 26.2595 26.2595 99.2828 0.0000 0.0000 0.0000
# 4 -4.4445 4.4445 0.0000 22.7353 0.0000 -8.0609
# 5 8.0609 -8.0609 0.0000 0.0000 22.7353 -4.4445
# 6 0.0000 0.0000 0.0000 -8.0609 -4.4445 34.8407
#
#
#
# Elastic Compliance Matrix: (Units=1/GPa)
#
#
# Indices 1 2 3 4 5 6 
#
# 1 0.010721 -0.005349 -0.001421 0.003142 -0.005698 0.000000
# 2 -0.005349 0.010721 -0.001421 -0.003142 0.005698 0.000000
# 3 -0.001421 -0.001421 0.010824 0.000000 0.000000 0.000000
# 4 0.003142 -0.003142 0.000000 0.049253 0.000000 0.011395
# 5 -0.005698 0.005698 0.000000 0.000000 0.049253 0.006283
# 6 0.000000 0.000000 0.000000 0.011395 0.006283 0.032140
#
#
# Mechanical properties :
#
#
# Convention : Reuss Voigt Hill
#
# Bulk Modulus (GPa) = 62.95354 67.15384 65.05369
# Shear Modulus (GPa) = 27.08720 32.81570 29.95145
#
# Velocity S-wave (km/s) = 3.63316 3.99893 3.82042
# Velocity P-wave (km/s) = 6.94821 7.35164 7.15277
#
# Compressibility (1/GPa) = 0.01588473
#
# Stress axis : x y z
#
# Youngs Moduli (GPa) = 93.27349 93.27349 92.38828
#
# Poissons Ratio (x) = 0.49891 0.13128
# Poissons Ratio (y) = 0.49891 0.13128
# Poissons Ratio (z) = 0.13253 0.13253
#
# Static dielectric constant tensor:
#      x y z
#    x 1.673670 0.000000 0.000000 
#    y 0.000000 1.673670 0.000000 
#    z 0.000000 0.000000 5.170860 
# 
# From -- ./inp_files/1338.got.cif
#   From: 2010.05.17/outbox.cif.g08.bks.cpg/sg148_1_cif.got.tgz:1338.got - 2010.05.20 13:50:20.
