data_PCOD9575978
_publ_section_title
;
Structure prediction by ZEFSAII (Michael W. Deem and Ramdas Pophale) SiO2 
 PCOD9575978
Probable space group: P 31 2 1
;
_chemical_formula_sum "Si O2"
_cell_formula_units_Z 33
_cell_length_a 11.746734
_cell_length_b 11.746734
_cell_length_c 12.247236
_cell_angle_alpha 90.000000
_cell_angle_beta 90.000000
_cell_angle_gamma 120.000000
_cell_volume 1463.534576
_symmetry_space_group_name_H-M "P 31 2 1"
_symmetry_group_IT_number 152
_symmetry_cell_setting 'hexagonal'
loop_
_space_group_symop_operation_xyz
x,y,z
-y,x-y,1/3+z
-x+y,-x,2/3+z
x-y,-y,2/3-z
-x,-x+y,1/3-z
y,x,-z
loop_
_atom_site_type_symbol
_atom_site_label
_atom_site_fract_x
_atom_site_fract_y
_atom_site_fract_z
Si Si1 0.401088 0.113206 0.413529
Si Si2 0.456152 0.327591 0.069702
Si Si3 0.000000 0.977968 0.166667
Si Si4 0.383014 0.034873 0.021313
Si Si5 0.406156 0.361025 0.322990
Si Si6 0.219584 0.117985 0.702031
O O1 0.546811 0.145745 0.377360
O O2 0.396639 0.246308 0.400791
O O3 0.297171 0.000000 0.333334
O O4 0.372672 0.045454 0.531444
O O5 0.444802 0.189631 0.040701
O O6 0.436894 0.333487 0.199660
O O7 0.354326 0.354326 0.000000
O O8 0.053053 0.926866 0.070608
O O9 0.113869 0.121466 0.204811
O O10 0.487537 0.995684 0.978654
O O11 0.253500 0.983774 0.949759
O O12 0.261556 0.341261 0.314833
#
# Coordination Sequence:
#
# PCOD9575978 Si02
#       6
#     6   6   3   6   6   6
#     4  10  21  42  68  94 128 178 219 272 325 409
#     4  10  23  42  69  95 130 171 227 273 337 399
#     4  10  24  42  70  92 130 170 220 284 328 404
#     4  11  24  41  67  97 133 171 221 279 335 396
#     4  11  24  41  67  96 132 175 219 276 333 413
#     4  11  24  42  65  99 128 172 221 274 339 397
#
# _framework density 22.548152000000002
#
# number of rings (size 3 to 8) (size 9 to 14) (size 15 to 20)
#    0.000    1.455    1.818    2.182   10.182    0.000 
#    0.000    2.727    0.000    0.000    0.000    0.000 
#    0.000    0.000    0.000    0.000    0.000    0.000 
#
# Total GULP energy -184673.121164 kJ/mol
# GULP energy per Si atom -5596.155187 kJ/mol
# Density = 2.249683 g / cm^3
# Si number density = 22.548152 Si / 1000 Ang^3
#
#
#
# Elastic Constant Matrix: (Units=GPa)
#
#
# Indices 1 2 3 4 5 6 
#
# 1 100.0427 35.7768 4.2325 0.3866 0.0000 0.0000
# 2 35.7768 100.0427 4.2325 -0.3866 0.0000 0.0000
# 3 4.2325 4.2325 56.6679 0.0000 0.0000 0.0000
# 4 0.3866 -0.3866 0.0000 19.7400 0.0000 0.0000
# 5 0.0000 0.0000 0.0000 0.0000 19.7400 0.3866
# 6 0.0000 0.0000 0.0000 0.0000 0.3866 32.1330
#
#
#
# Elastic Compliance Matrix: (Units=1/GPa)
#
#
# Indices 1 2 3 4 5 6 
#
# 1 0.011481 -0.004083 -0.000552 -0.000305 0.000000 0.000000
# 2 -0.004083 0.011481 -0.000552 0.000305 0.000000 0.000000
# 3 -0.000552 -0.000552 0.017729 0.000000 0.000000 0.000000
# 4 -0.000305 0.000305 0.000000 0.050671 0.000000 0.000000
# 5 0.000000 0.000000 0.000000 0.000000 0.050671 -0.000610
# 6 0.000000 0.000000 0.000000 0.000000 -0.000610 0.031128
#
#
# Mechanical properties :
#
#
# Convention : Reuss Voigt Hill
#
# Bulk Modulus (GPa) = 32.98856 38.35967 35.67411
# Shear Modulus (GPa) = 25.82099 28.49001 27.15550
#
# Velocity S-wave (km/s) = 3.38768 3.55846 3.47412
# Velocity P-wave (km/s) = 5.47392 5.82518 5.65228
#
# Compressibility (1/GPa) = 0.03031354
#
# Stress axis : x y z
#
# Youngs Moduli (GPa) = 87.10361 87.10361 56.40407
#
# Poissons Ratio (x) = 0.35568 0.03116
# Poissons Ratio (y) = 0.35568 0.03116
# Poissons Ratio (z) = 0.04812 0.04812
#
# Static dielectric constant tensor:
#      x y z
#    x 1.803890 0.000000 0.000000 
#    y 0.000000 1.803890 0.000000 
#    z 0.000000 0.000000 1.886190 
# 
# From -- ./inp_files/2029.got.cif
#   From: 2010.05.17/outbox.cif.g08.bks.cpg/sg152_2_cif.got.tgz:2029.got - 2010.05.20 10:36:06.
