data_PCOD9575041
_publ_section_title
;
Structure prediction by ZEFSAII (Michael W. Deem and Ramdas Pophale) SiO2 
 PCOD9575041
Probable space group: R -3
;
_chemical_formula_sum "Si O2"
_cell_formula_units_Z 90
_cell_length_a 17.002841
_cell_length_b 17.002841
_cell_length_c 19.132951
_cell_angle_alpha 90.000000
_cell_angle_beta 90.000000
_cell_angle_gamma 120.000000
_cell_volume 4790.221307
_symmetry_space_group_name_H-M "R -3"
_symmetry_group_IT_number 148
_symmetry_cell_setting 'hexagonal'
loop_
_space_group_symop_operation_xyz
x,y,z
-y,x-y,z
-x+y,-x,z
-x,-y,-z
y,-x+y,-z
x-y,x,-z
2/3+x,1/3+y,1/3+z
2/3-y,1/3+x-y,1/3+z
2/3-x+y,1/3-x,1/3+z
2/3-x,1/3-y,1/3-z
2/3+y,1/3-x+y,1/3-z
2/3+x-y,1/3+x,1/3-z
1/3+x,2/3+y,2/3+z
1/3-y,2/3+x-y,2/3+z
1/3-x+y,2/3-x,2/3+z
1/3-x,2/3-y,2/3-z
1/3+y,2/3-x+y,2/3-z
1/3+x-y,2/3+x,2/3-z
loop_
_atom_site_type_symbol
_atom_site_label
_atom_site_fract_x
_atom_site_fract_y
_atom_site_fract_z
Si Si1 0.283040 0.051675 0.352497
Si Si2 0.383626 0.101968 0.980836
Si Si3 0.180249 0.999648 0.791017
Si Si4 0.513934 0.667018 0.875650
Si Si5 0.666667 0.042358 0.833333
O O1 0.315178 0.157589 0.354290
O O2 0.209498 0.008837 0.290626
O O3 0.360646 0.027312 0.333333
O O4 0.247091 0.008699 0.428634
O O5 0.419576 0.094941 0.904699
O O6 0.457168 0.132672 0.042707
O O7 0.154990 0.077495 0.800250
O O8 0.098348 0.901652 0.813313
O O9 0.274725 0.028353 0.829391
O O10 0.579706 0.638314 0.837276
#
# Coordination Sequence:
#
# PCOD9575041 Si02
#       5
#    18  18  18  18  18
#     4   9  19  33  50  72  98 129 163 201 244 290
#     4   9  19  33  50  72  98 129 163 201 244 290
#     4  10  20  34  52  74 100 130 164 202 244 290
#     4  10  20  34  52  74 100 130 164 202 244 290
#     4  10  19  32  52  74  99 128 164 204 243 288
#
# _framework density 18.788274999999999
#
# number of rings (size 3 to 8) (size 9 to 14) (size 15 to 20)
#    0.000    2.400    0.000    2.200    0.000   10.400 
#    0.000    0.000    0.000    0.400    0.000    7.000 
#    0.000    0.000    0.000    0.000    0.000    0.000 
#
# Total GULP energy -167322.109663 kJ/mol
# GULP energy per Si atom -5577.403655 kJ/mol
# Density = 1.874551 g / cm^3
# Si number density = 18.788275 Si / 1000 Ang^3
#
#
#
# Elastic Constant Matrix: (Units=GPa)
#
#
# Indices 1 2 3 4 5 6 
#
# 1 43.6024 -5.8754 -21.4717 -10.0956 0.0000 0.0000
# 2 -5.8754 43.6024 -21.4717 10.0956 0.0000 0.0000
# 3 -21.4717 -21.4717 48.9501 0.0000 0.0000 0.0000
# 4 -10.0956 10.0956 0.0000 11.9495 0.0000 0.0000
# 5 0.0000 0.0000 0.0000 0.0000 11.9495 -10.0956
# 6 0.0000 0.0000 0.0000 0.0000 -10.0956 24.7389
#
#
#
# Elastic Compliance Matrix: (Units=1/GPa)
#
#
# Indices 1 2 3 4 5 6 
#
# 1 0.041892 0.011046 0.023221 0.026060 0.000000 0.000000
# 2 0.011046 0.041892 0.023221 -0.026060 0.000000 0.000000
# 3 0.023221 0.023221 0.040800 0.000000 0.000000 0.000000
# 4 0.026060 -0.026060 0.000000 0.127719 0.000000 0.000000
# 5 0.000000 0.000000 0.000000 0.000000 0.127719 0.052120
# 6 0.000000 0.000000 0.000000 0.000000 0.052120 0.061692
#
#
# Mechanical properties :
#
#
# Convention : Reuss Voigt Hill
#
# Bulk Modulus (GPa) = 4.17433 4.27970 4.22701
# Shear Modulus (GPa) = 12.29735 22.05916 17.17826
#
# Velocity S-wave (km/s) = 2.56114 3.43022 3.02703
# Velocity P-wave (km/s) = 3.31248 4.23926 3.80420
#
# Compressibility (1/GPa) = 0.23955944
#
# Stress axis : x y z
#
# Youngs Moduli (GPa) = 23.87103 23.87103 24.50957
#
# Poissons Ratio (x) = -0.26368 -0.56913
# Poissons Ratio (y) = -0.26368 -0.56913
# Poissons Ratio (z) = -0.55431 -0.55431
#
# Static dielectric constant tensor:
#      x y z
#    x 1.637910 0.000000 0.000000 
#    y 0.000000 1.637910 0.000000 
#    z 0.000000 0.000000 1.696160 
# 
# From -- ./inp_files/2680.got.cif
#   From: 2010.05.17/outbox.cif.g08.bks.cpg/sg148_2_cif.got.tgz:2680.got - 2010.05.20 13:50:20.
