data_PCOD9575820
_publ_section_title
;
Structure prediction by ZEFSAII (Michael W. Deem and Ramdas Pophale) SiO2 
 PCOD9575820
Probable space group: P 31 2 1
;
_chemical_formula_sum "Si O2"
_cell_formula_units_Z 27
_cell_length_a 13.316797
_cell_length_b 13.316797
_cell_length_c 7.917290
_cell_angle_alpha 90.000000
_cell_angle_beta 90.000000
_cell_angle_gamma 120.000000
_cell_volume 1215.924876
_symmetry_space_group_name_H-M "P 31 2 1"
_symmetry_group_IT_number 152
_symmetry_cell_setting 'hexagonal'
loop_
_space_group_symop_operation_xyz
x,y,z
-y,x-y,1/3+z
-x+y,-x,2/3+z
x-y,-y,2/3-z
-x,-x+y,1/3-z
y,x,-z
loop_
_atom_site_type_symbol
_atom_site_label
_atom_site_fract_x
_atom_site_fract_y
_atom_site_fract_z
Si Si1 0.666288 0.870032 0.813969
Si Si2 0.431769 0.147657 0.194903
Si Si3 0.923257 0.000000 0.833334
Si Si4 0.377156 0.505139 0.941169
Si Si5 0.363715 0.921204 0.001040
O O1 0.583037 0.769005 0.683078
O O2 0.683667 0.000000 0.833334
O O3 0.796717 0.899660 0.774844
O O4 0.634596 0.812117 0.997392
O O5 0.550908 0.166861 0.274109
O O6 0.460339 0.242450 0.052625
O O7 0.367162 0.016865 0.131759
O O8 0.000000 0.034010 0.666667
O O9 0.432836 0.551900 0.753871
O O10 0.409620 0.409620 0.000000
O O11 0.414407 0.000000 0.833334
#
# Coordination Sequence:
#
# PCOD9575820 Si02
#       5
#     6   6   3   6   6
#     4   9  21  36  56  80 115 150 184 227 281 339
#     4  10  20  40  59  80 113 148 187 235 285 336
#     4  10  20  34  54  84 118 156 196 236 280 348
#     4   9  21  39  61  81 110 147 187 235 284 337
#     4  10  21  38  58  83 112 147 187 231 281 338
#
# _framework density 22.205318999999999
#
# number of rings (size 3 to 8) (size 9 to 14) (size 15 to 20)
#    0.667    1.778    0.000    3.333    1.556    4.444 
#    0.000   10.000    0.000    0.000    0.000    0.000 
#    0.000    0.000    0.000    0.000    0.000    0.000 
#
# Total GULP energy -150464.594392 kJ/mol
# GULP energy per Si atom -5572.762755 kJ/mol
# Density = 2.215478 g / cm^3
# Si number density = 22.205319 Si / 1000 Ang^3
#
#
#
# Elastic Constant Matrix: (Units=GPa)
#
#
# Indices 1 2 3 4 5 6 
#
# 1 60.1767 18.5311 -11.0302 5.5807 -0.0001 0.0000
# 2 18.5311 60.1767 -11.0302 -5.5807 0.0001 0.0000
# 3 -11.0302 -11.0302 55.1742 0.0000 0.0000 0.0000
# 4 5.5807 -5.5807 0.0000 15.8416 0.0000 0.0001
# 5 -0.0001 0.0001 0.0000 0.0000 15.8416 5.5807
# 6 0.0000 0.0000 0.0000 0.0001 5.5807 20.8228
#
#
#
# Elastic Compliance Matrix: (Units=1/GPa)
#
#
# Indices 1 2 3 4 5 6 
#
# 1 0.019988 -0.006528 0.002691 -0.009341 0.000000 0.000000
# 2 -0.006528 0.019988 0.002691 0.009341 0.000000 0.000000
# 3 0.002691 0.002691 0.019200 0.000000 0.000000 0.000000
# 4 -0.009341 0.009341 0.000000 0.069706 0.000000 0.000000
# 5 0.000000 0.000000 0.000000 0.000000 0.069706 -0.018682
# 6 0.000000 0.000000 0.000000 0.000000 -0.018682 0.053031
#
#
# Mechanical properties :
#
#
# Convention : Reuss Voigt Hill
#
# Bulk Modulus (GPa) = 17.58025 18.71878 18.14952
# Shear Modulus (GPa) = 18.32351 22.43831 20.38091
#
# Velocity S-wave (km/s) = 2.87572 3.18227 3.03287
# Velocity P-wave (km/s) = 4.35439 4.68515 4.52279
#
# Compressibility (1/GPa) = 0.05688201
#
# Stress axis : x y z
#
# Youngs Moduli (GPa) = 50.03120 50.03120 52.08265
#
# Poissons Ratio (x) = 0.32661 -0.14014
# Poissons Ratio (y) = 0.32661 -0.14014
# Poissons Ratio (z) = -0.13462 -0.13462
#
# Static dielectric constant tensor:
#      x y z
#    x 1.829500 0.000000 0.000000 
#    y 0.000000 1.829500 0.000000 
#    z 0.000000 0.000000 1.918880 
# 
# From -- ./inp_files/1013.got.cif
#   From: 2010.05.17/outbox.cif.g08.bks.cpg/sg152_1_cif.got.tgz:1013.got - 2010.05.20 10:36:06.
