data_PCOD9575274
_publ_section_title
;
Structure prediction by ZEFSAII (Michael W. Deem and Ramdas Pophale) SiO2 
 PCOD9575274
Probable space group: R -3
;
_chemical_formula_sum "Si O2"
_cell_formula_units_Z 66
_cell_length_a 11.182272
_cell_length_b 11.182272
_cell_length_c 31.875697
_cell_angle_alpha 90.000000
_cell_angle_beta 90.000000
_cell_angle_gamma 120.000000
_cell_volume 3451.838159
_symmetry_space_group_name_H-M "R -3"
_symmetry_group_IT_number 148
_symmetry_cell_setting 'hexagonal'
loop_
_space_group_symop_operation_xyz
x,y,z
-y,x-y,z
-x+y,-x,z
-x,-y,-z
y,-x+y,-z
x-y,x,-z
2/3+x,1/3+y,1/3+z
2/3-y,1/3+x-y,1/3+z
2/3-x+y,1/3-x,1/3+z
2/3-x,1/3-y,1/3-z
2/3+y,1/3-x+y,1/3-z
2/3+x-y,1/3+x,1/3-z
1/3+x,2/3+y,2/3+z
1/3-y,2/3+x-y,2/3+z
1/3-x+y,2/3-x,2/3+z
1/3-x,2/3-y,2/3-z
1/3+y,2/3-x+y,2/3-z
1/3+x-y,2/3+x,2/3-z
loop_
_atom_site_type_symbol
_atom_site_label
_atom_site_fract_x
_atom_site_fract_y
_atom_site_fract_z
Si Si1 0.666667 0.333334 0.417894
Si Si2 0.463020 0.530600 0.639076
Si Si3 0.016726 0.721973 0.500207
Si Si4 0.955699 0.489067 0.557980
Si Si5 0.666667 0.333334 0.149614
O O1 0.579476 0.395623 0.396990
O O2 0.666668 0.333334 0.467242
O O3 0.323011 0.426889 0.663849
O O4 0.522354 0.460795 0.608206
O O5 0.004805 0.620549 0.461709
O O6 0.875588 0.727451 0.504174
O O7 0.041983 0.645892 0.540128
O O8 0.811582 0.444831 0.535379
#
# Coordination Sequence:
#
# PCOD9575274 Si02
#       5
#     6  18  18  18   6
#     4   9  16  31  57  90 114 132 198 258 319 349
#     4   9  20  35  57  85 117 162 208 255 291 364
#     4  11  23  38  62  94 131 165 198 262 320 383
#     4  11  23  37  62  93 125 160 205 257 321 364
#     4  12  21  40  61  99 126 153 198 268 328 378
#
# _framework density 19.120248
#
# number of rings (size 3 to 8) (size 9 to 14) (size 15 to 20)
#    0.000    1.636    2.727    4.636    7.636    0.000 
#    1.636    1.364    0.000    0.000    0.000    0.000 
#    0.000    0.000    0.000    0.000    0.000    0.000 
#
# Total GULP energy -122556.883974 kJ/mol
# GULP energy per Si atom -5570.767453 kJ/mol
# Density = 1.907673 g / cm^3
# Si number density = 19.120248 Si / 1000 Ang^3
#
#
#
# Elastic Constant Matrix: (Units=GPa)
#
#
# Indices 1 2 3 4 5 6 
#
# 1 86.7901 36.6855 29.4476 -1.3028 -0.7525 -0.0002
# 2 36.6855 86.7898 29.4470 1.3025 0.7524 -0.0003
# 3 29.4476 29.4470 155.0546 0.0001 0.0003 0.0000
# 4 -1.3028 1.3025 0.0001 19.7284 0.0000 0.7527
# 5 -0.7525 0.7524 0.0003 0.0000 19.7291 -1.3025
# 6 -0.0002 -0.0003 0.0000 0.7527 -1.3025 25.0521
#
#
#
# Elastic Compliance Matrix: (Units=1/GPa)
#
#
# Indices 1 2 3 4 5 6 
#
# 1 0.014478 -0.005572 -0.001691 0.001324 0.000765 0.000000
# 2 -0.005572 0.014478 -0.001691 -0.001324 -0.000765 0.000000
# 3 -0.001691 -0.001691 0.007092 0.000000 0.000000 0.000000
# 4 0.001324 -0.001324 0.000000 0.050922 0.000000 -0.001530
# 5 0.000765 -0.000765 0.000000 0.000000 0.050920 0.002647
# 6 0.000000 0.000000 0.000000 -0.001530 0.002647 0.040100
#
#
# Mechanical properties :
#
#
# Convention : Reuss Voigt Hill
#
# Bulk Modulus (GPa) = 55.13426 57.75496 56.44461
# Shear Modulus (GPa) = 24.75925 28.43887 26.59906
#
# Velocity S-wave (km/s) = 3.60241 3.86083 3.73385
# Velocity P-wave (km/s) = 6.79715 7.08141 6.94074
#
# Compressibility (1/GPa) = 0.01813754
#
# Stress axis : x y z
#
# Youngs Moduli (GPa) = 69.07124 69.07125 141.00896
#
# Poissons Ratio (x) = 0.38489 0.23849
# Poissons Ratio (y) = 0.38489 0.23848
# Poissons Ratio (z) = 0.11682 0.11682
#
# Static dielectric constant tensor:
#      x y z
#    x 1.891650 0.000000 0.000000 
#    y 0.000000 1.891660 0.000000 
#    z 0.000000 0.000000 1.718200 
# 
# From -- ./inp_files/3913.got.cif
#   From: 2010.05.17/outbox.cif.g08.bks.cpg/sg148_2_cif.got.tgz:3913.got - 2010.05.20 13:50:20.
