data_PCOD9575308
_publ_section_title
;
Structure prediction by ZEFSAII (Michael W. Deem and Ramdas Pophale) SiO2 
 PCOD9575308
Probable space group: R -3
;
_chemical_formula_sum "Si O2"
_cell_formula_units_Z 66
_cell_length_a 12.699134
_cell_length_b 12.699134
_cell_length_c 19.623173
_cell_angle_alpha 90.000000
_cell_angle_beta 90.000000
_cell_angle_gamma 120.000000
_cell_volume 2740.615288
_symmetry_space_group_name_H-M "R -3"
_symmetry_group_IT_number 148
_symmetry_cell_setting 'hexagonal'
loop_
_space_group_symop_operation_xyz
x,y,z
-y,x-y,z
-x+y,-x,z
-x,-y,-z
y,-x+y,-z
x-y,x,-z
2/3+x,1/3+y,1/3+z
2/3-y,1/3+x-y,1/3+z
2/3-x+y,1/3-x,1/3+z
2/3-x,1/3-y,1/3-z
2/3+y,1/3-x+y,1/3-z
2/3+x-y,1/3+x,1/3-z
1/3+x,2/3+y,2/3+z
1/3-y,2/3+x-y,2/3+z
1/3-x+y,2/3-x,2/3+z
1/3-x,2/3-y,2/3-z
1/3+y,2/3-x+y,2/3-z
1/3+x-y,2/3+x,2/3-z
loop_
_atom_site_type_symbol
_atom_site_label
_atom_site_fract_x
_atom_site_fract_y
_atom_site_fract_z
Si Si1 0.333334 0.666668 0.785160
Si Si2 0.834509 0.238292 0.599412
Si Si3 0.694662 0.644805 0.156344
Si Si4 0.039774 0.225553 0.039127
Si Si5 0.666667 0.333334 0.611201
O O1 0.384435 0.795938 0.752752
O O2 0.333334 0.666667 0.863583
O O3 0.833334 0.166667 0.666667
O O4 0.964393 0.310437 0.560395
O O5 0.786266 0.326527 0.627892
O O6 0.736701 0.152456 0.541414
O O7 0.833334 0.666667 0.166667
O O8 0.683817 0.723595 0.094250
O O9 0.151133 0.251791 0.989172
#
# Coordination Sequence:
#
# PCOD9575308 Si02
#       5
#     6  18  18  18   6
#     4   9  13  34  60 102 133 181 214 308 370 415
#     4  12  29  47  77 114 156 204 253 323 392 463
#     4  12  26  46  76 105 148 201 260 310 378 456
#     4   9  19  31  64 104 137 171 239 307 368 422
#     4  12  21  49  73 103 157 189 250 317 382 435
#
# _framework density 24.082182
#
# number of rings (size 3 to 8) (size 9 to 14) (size 15 to 20)
#    0.000    1.091    5.455    1.091    7.636    2.182 
#    0.000    0.000    0.000    2.182    0.000    0.000 
#    0.000    0.000    0.000    0.000    0.000    0.000 
#
# Total GULP energy -122535.012439 kJ/mol
# GULP energy per Si atom -5569.773293 kJ/mol
# Density = 2.402737 g / cm^3
# Si number density = 24.082182 Si / 1000 Ang^3
#
#
#
# Elastic Constant Matrix: (Units=GPa)
#
#
# Indices 1 2 3 4 5 6 
#
# 1 65.3986 5.1915 39.1286 -3.6262 -5.3787 -0.0001
# 2 5.1915 65.3991 39.1274 3.6266 5.3786 0.0003
# 3 39.1286 39.1274 127.8684 -0.0003 -0.0005 -0.0001
# 4 -3.6262 3.6266 -0.0003 47.6845 0.0001 5.3782
# 5 -5.3787 5.3786 -0.0005 0.0001 47.6843 -3.6265
# 6 -0.0001 0.0003 -0.0001 5.3782 -3.6265 30.1028
#
#
#
# Elastic Compliance Matrix: (Units=1/GPa)
#
#
# Indices 1 2 3 4 5 6 
#
# 1 0.019275 0.002164 -0.006561 0.001301 0.001930 0.000000
# 2 0.002164 0.019275 -0.006560 -0.001301 -0.001930 0.000000
# 3 -0.006561 -0.006560 0.011836 0.000000 0.000000 0.000000
# 4 0.001301 -0.001301 0.000000 0.021604 0.000000 -0.003860
# 5 0.001930 -0.001930 0.000000 0.000000 0.021605 0.002603
# 6 0.000000 0.000000 0.000000 -0.003860 0.002603 0.034223
#
#
# Mechanical properties :
#
#
# Convention : Reuss Voigt Hill
#
# Bulk Modulus (GPa) = 35.12215 47.28456 41.20335
# Shear Modulus (GPa) = 31.40285 36.77558 34.08922
#
# Velocity S-wave (km/s) = 3.61499 3.91204 3.76644
# Velocity P-wave (km/s) = 5.66041 6.33109 6.00512
#
# Compressibility (1/GPa) = 0.02847206
#
# Stress axis : x y z
#
# Youngs Moduli (GPa) = 51.88027 51.88127 84.49132
#
# Poissons Ratio (x) = -0.11228 0.55431
# Poissons Ratio (y) = -0.11227 0.55429
# Poissons Ratio (z) = 0.34036 0.34036
#
# Static dielectric constant tensor:
#      x y z
#    x 2.083680 0.000000 -0.000010 
#    y 0.000000 2.083680 0.000010 
#    z -0.000010 0.000010 2.181680 
# 
# From -- ./inp_files/3028.got.cif
#   From: 2010.05.17/outbox.cif.g08.bks.cpg/sg148_2_cif.got.tgz:3028.got - 2010.05.20 13:50:20.
