data_PCOD9575453
_publ_section_title
;
Structure prediction by ZEFSAII (Michael W. Deem and Ramdas Pophale) SiO2 
 PCOD9575453
Probable space group: P 3 2 1
;
_chemical_formula_sum "Si O2"
_cell_formula_units_Z 19
_cell_length_a 9.003415
_cell_length_b 9.003415
_cell_length_c 11.278703
_cell_angle_alpha 90.000000
_cell_angle_beta 90.000000
_cell_angle_gamma 120.000000
_cell_volume 791.779640
_symmetry_space_group_name_H-M "P 3 2 1"
_symmetry_group_IT_number 150
_symmetry_cell_setting 'hexagonal'
loop_
_space_group_symop_operation_xyz
x,y,z
-y,x-y,z
-x+y,-x,z
x-y,-y,-z
-x,-x+y,-z
y,x,-z
loop_
_atom_site_type_symbol
_atom_site_label
_atom_site_fract_x
_atom_site_fract_y
_atom_site_fract_z
Si Si1 0.258653 0.454722 0.389872
Si Si2 0.666666 0.333333 0.402223
Si Si3 0.148142 0.214579 0.185720
Si Si4 0.333335 0.666668 0.876974
Si Si5 0.579836 0.000000 0.000000
O O1 0.452030 0.601164 0.352935
O O2 0.268476 0.481656 0.532289
O O3 0.190233 0.283834 0.319084
O O4 0.666668 0.333334 0.264472
O O5 0.266656 0.361158 0.095549
O O6 0.180202 0.055174 0.166133
O O7 0.421115 0.858332 0.927456
#
# Coordination Sequence:
#
# PCOD9575453 Si02
#       5
#     6   2   6   2   3
#     4   6  16  36  79 100 144 185 254 285 369 457
#     4   6  18  46  83 109 135 198 253 323 358 492
#     4  10  22  39  74 111 162 187 243 312 369 434
#     4  12  30  52  86  97 159 189 271 308 400 438
#     4  12  30  44  78 114 140 218 248 312 376 466
#
# _framework density 23.996576000000001
#
# number of rings (size 3 to 8) (size 9 to 14) (size 15 to 20)
#    3.158    0.000    0.000    0.947    8.842    0.000 
#    0.000    1.579    6.947    3.158    0.000    0.000 
#    0.000    0.000    0.000    0.000    0.000    0.000 
#
# Total GULP energy -105803.451369 kJ/mol
# GULP energy per Si atom -5568.602704 kJ/mol
# Density = 2.394196 g / cm^3
# Si number density = 23.996576 Si / 1000 Ang^3
#
#
#
# Elastic Constant Matrix: (Units=GPa)
#
#
# Indices 1 2 3 4 5 6 
#
# 1 52.8024 11.3765 41.8775 -14.0282 0.0000 0.0000
# 2 11.3765 52.8031 41.8780 14.0283 0.0000 0.0000
# 3 41.8775 41.8780 161.4695 0.0001 0.0000 0.0000
# 4 -14.0282 14.0283 0.0001 38.8372 0.0000 0.0000
# 5 0.0000 0.0000 0.0000 0.0000 38.8374 -14.0279
# 6 0.0000 0.0000 0.0000 0.0000 -14.0279 20.7136
#
#
#
# Elastic Compliance Matrix: (Units=1/GPa)
#
#
# Indices 1 2 3 4 5 6 
#
# 1 0.027755 -0.004202 -0.006109 0.011543 0.000000 0.000000
# 2 -0.004202 0.027755 -0.006109 -0.011543 0.000000 0.000000
# 3 -0.006109 -0.006109 0.009362 0.000000 0.000000 0.000000
# 4 0.011543 -0.011543 0.000000 0.034087 0.000000 0.000000
# 5 0.000000 0.000000 0.000000 0.000000 0.034086 0.023084
# 6 0.000000 0.000000 0.000000 0.000000 0.023084 0.063911
#
#
# Mechanical properties :
#
#
# Convention : Reuss Voigt Hill
#
# Bulk Modulus (GPa) = 31.21711 50.81546 41.01628
# Shear Modulus (GPa) = 20.79236 31.14050 25.96643
#
# Velocity S-wave (km/s) = 2.94678 3.60628 3.29308
# Velocity P-wave (km/s) = 4.96138 6.20986 5.62039
#
# Compressibility (1/GPa) = 0.03203372
#
# Stress axis : x y z
#
# Youngs Moduli (GPa) = 36.02924 36.02950 106.81803
#
# Poissons Ratio (x) = 0.15139 0.65251
# Poissons Ratio (y) = 0.15139 0.65251
# Poissons Ratio (z) = 0.22009 0.22009
#
# Static dielectric constant tensor:
#      x y z
#    x 1.966950 0.000000 0.000000 
#    y 0.000000 1.966950 0.000000 
#    z 0.000000 0.000000 1.880200 
# 
# From -- ./inp_files/864.got.cif
#   From: 2010.05.17/outbox.cif.g08.bks.cpg/sg150_cif.got.tgz:864.got - 2010.05.20 13:53:18.
