data_PCOD9575522
_publ_section_title
;
Structure prediction by ZEFSAII (Michael W. Deem and Ramdas Pophale) SiO2 
 PCOD9575522
Probable space group: P 31 1 2
;
_chemical_formula_sum "Si O2"
_cell_formula_units_Z 42
_cell_length_a 9.685570
_cell_length_b 9.685570
_cell_length_c 27.891099
_cell_angle_alpha 90.000000
_cell_angle_beta 90.000000
_cell_angle_gamma 120.000000
_cell_volume 2265.930720
_symmetry_space_group_name_H-M "P 31 1 2"
_symmetry_group_IT_number 151
_symmetry_cell_setting 'hexagonal'
loop_
_space_group_symop_operation_xyz
x,y,z
-y,x-y,1/3+z
-x+y,-x,2/3+z
-y,-x,2/3-z
-x+y,y,1/3-z
x,x-y,-z
loop_
_atom_site_type_symbol
_atom_site_label
_atom_site_fract_x
_atom_site_fract_y
_atom_site_fract_z
Si Si1 0.397304 0.039115 0.922687
Si Si2 0.602726 0.335712 0.389487
Si Si3 0.700009 0.666668 0.416667
Si Si4 0.024856 0.294220 0.910647
Si Si5 0.128604 0.567158 0.835935
Si Si6 0.002377 0.936059 0.777180
Si Si7 0.228112 0.766176 0.997398
O O1 0.554903 0.206358 0.930407
O O2 0.246056 0.052420 0.904330
O O3 0.439030 0.945639 0.882408
O O4 0.340227 0.933017 0.971143
O O5 0.629361 0.370640 0.333334
O O6 0.705951 0.505784 0.415348
O O7 0.420612 0.280915 0.404330
O O8 0.592788 0.656522 0.462233
O O9 0.602936 0.676814 0.371100
O O10 0.866834 0.827551 0.417987
O O11 0.073878 0.400317 0.862190
O O12 0.015213 0.126977 0.902927
O O13 0.160058 0.387696 0.950925
O O14 0.318218 0.681783 0.833334
O O15 0.037305 0.962696 0.833334
O O16 0.303100 0.651550 0.000000
#
# Coordination Sequence:
#
# PCOD9575522 Si02
#       7
#     6   6   6   6   6   6   6
#     4  11  24  37  69  92 129 167 217 266 326 383
#     4  11  23  42  61  97 126 164 214 264 316 389
#     4  10  18  38  68  84 124 166 210 250 314 388
#     4  11  24  37  69  92 129 167 217 266 326 383
#     4  11  18  40  65  95 119 173 212 254 319 400
#     4  11  23  42  61  97 126 164 214 264 316 389
#     4  11  18  40  65  95 119 173 212 254 319 400
#
# _framework density 18.535429000000001
#
# number of rings (size 3 to 8) (size 9 to 14) (size 15 to 20)
#    0.000    1.143    8.571    0.000    4.000    3.429 
#    0.000    2.857    0.000    0.000    0.000    0.000 
#    0.000    0.000    0.000    0.000    0.000    0.000 
#
# Total GULP energy -234447.977698 kJ/mol
# GULP energy per Si atom -5582.094707 kJ/mol
# Density = 1.849324 g / cm^3
# Si number density = 18.535429 Si / 1000 Ang^3
#
#
#
# Elastic Constant Matrix: (Units=GPa)
#
#
# Indices 1 2 3 4 5 6 
#
# 1 136.6984 72.0452 26.4868 -0.0001 -0.0004 0.0000
# 2 72.0452 136.6984 26.4868 0.0001 0.0004 0.0000
# 3 26.4868 26.4868 42.9717 0.0000 0.0000 0.0000
# 4 -0.0001 0.0001 0.0000 24.1861 0.0000 0.0004
# 5 -0.0004 0.0004 0.0000 0.0000 24.1861 -0.0001
# 6 0.0000 0.0000 0.0000 0.0004 -0.0001 32.3266
#
#
#
# Elastic Compliance Matrix: (Units=1/GPa)
#
#
# Indices 1 2 3 4 5 6 
#
# 1 0.010573 -0.004894 -0.003500 0.000000 0.000000 0.000000
# 2 -0.004894 0.010573 -0.003500 0.000000 0.000000 0.000000
# 3 -0.003500 -0.003500 0.027586 0.000000 0.000000 0.000000
# 4 0.000000 0.000000 0.000000 0.041346 0.000000 -0.000001
# 5 0.000000 0.000000 0.000000 0.000000 0.041346 0.000000
# 6 0.000000 0.000000 0.000000 -0.000001 0.000000 0.030934
#
#
# Mechanical properties :
#
#
# Convention : Reuss Voigt Hill
#
# Bulk Modulus (GPa) = 40.09207 62.93404 51.51305
# Shear Modulus (GPa) = 25.71192 28.89641 27.30416
#
# Velocity S-wave (km/s) = 3.72852 3.95268 3.84224
# Velocity P-wave (km/s) = 6.34135 7.40666 6.89461
#
# Compressibility (1/GPa) = 0.02494259
#
# Stress axis : x y z
#
# Youngs Moduli (GPa) = 94.58057 94.58057 36.25006
#
# Poissons Ratio (x) = 0.46289 0.12689
# Poissons Ratio (y) = 0.46289 0.12689
# Poissons Ratio (z) = 0.33106 0.33106
#
# Static dielectric constant tensor:
#      x y z
#    x 1.643850 0.000000 0.000000 
#    y 0.000000 1.643850 0.000000 
#    z 0.000000 0.000000 1.662860 
# 
# From -- ./inp_files/5031.got.cif
#   From: 2010.05.17/outbox.cif.g08.bks.cpg/sg151_3_cif.got.tgz:5031.got - 2010.05.20 10:33:20.
