data_PCOD9575113
_publ_section_title
;
Structure prediction by ZEFSAII (Michael W. Deem and Ramdas Pophale) SiO2 
 PCOD9575113
Probable space group: R -3
;
_chemical_formula_sum "Si O2"
_cell_formula_units_Z 54
_cell_length_a 15.620269
_cell_length_b 15.620269
_cell_length_c 9.850871
_cell_angle_alpha 90.000000
_cell_angle_beta 90.000000
_cell_angle_gamma 120.000000
_cell_volume 2081.528114
_symmetry_space_group_name_H-M "R -3"
_symmetry_group_IT_number 148
_symmetry_cell_setting 'hexagonal'
loop_
_space_group_symop_operation_xyz
x,y,z
-y,x-y,z
-x+y,-x,z
-x,-y,-z
y,-x+y,-z
x-y,x,-z
2/3+x,1/3+y,1/3+z
2/3-y,1/3+x-y,1/3+z
2/3-x+y,1/3-x,1/3+z
2/3-x,1/3-y,1/3-z
2/3+y,1/3-x+y,1/3-z
2/3+x-y,1/3+x,1/3-z
1/3+x,2/3+y,2/3+z
1/3-y,2/3+x-y,2/3+z
1/3-x+y,2/3-x,2/3+z
1/3-x,2/3-y,2/3-z
1/3+y,2/3-x+y,2/3-z
1/3+x-y,2/3+x,2/3-z
loop_
_atom_site_type_symbol
_atom_site_label
_atom_site_fract_x
_atom_site_fract_y
_atom_site_fract_z
Si Si1 0.825184 0.796669 0.795096
Si Si2 0.973667 0.174494 0.204305
Si Si3 0.925253 0.596931 0.834107
O O1 0.782788 0.867701 0.836854
O O2 0.805848 0.774092 0.634042
O O3 0.771690 0.685380 0.852282
O O4 0.940388 0.850247 0.826607
O O5 0.014494 0.284112 0.145856
O O6 0.978208 0.194236 0.366290
#
# Coordination Sequence:
#
# PCOD9575113 Si02
#       3
#    18  18  18
#     4  11  21  36  56  81 107 138 177 221 262 308
#     4  11  21  36  56  81 107 138 177 221 262 308
#     4  10  21  36  55  78 108 144 176 210 263 324
#
# _framework density 25.94248
#
# number of rings (size 3 to 8) (size 9 to 14) (size 15 to 20)
#    0.000    1.333    0.000    9.667    0.000    0.000 
#    0.000    3.333    0.000    0.000    0.000   23.333 
#    0.000    0.000    0.000    0.000    0.000    0.000 
#
# Total GULP energy -100844.312970 kJ/mol
# GULP energy per Si atom -5602.461832 kJ/mol
# Density = 2.588343 g / cm^3
# Si number density = 25.942480 Si / 1000 Ang^3
#
#
#
# Elastic Constant Matrix: (Units=GPa)
#
#
# Indices 1 2 3 4 5 6 
#
# 1 121.1908 16.8250 -11.3092 5.1260 -1.2764 0.0000
# 2 16.8250 121.1908 -11.3092 -5.1260 1.2764 0.0000
# 3 -11.3092 -11.3092 85.7344 0.0000 0.0000 0.0000
# 4 5.1260 -5.1260 0.0000 14.8507 0.0000 1.2764
# 5 -1.2764 1.2764 0.0000 0.0000 14.8507 5.1260
# 6 0.0000 0.0000 0.0000 1.2764 5.1260 52.1829
#
#
#
# Elastic Compliance Matrix: (Units=1/GPa)
#
#
# Indices 1 2 3 4 5 6 
#
# 1 0.008673 -0.001267 0.000977 -0.003431 0.000854 0.000000
# 2 -0.001267 0.008673 0.000977 0.003431 -0.000854 0.000000
# 3 0.000977 0.000977 0.011922 0.000000 0.000000 0.000000
# 4 -0.003431 0.003431 0.000000 0.069852 0.000000 -0.001709
# 5 0.000854 -0.000854 0.000000 0.000000 0.069852 -0.006862
# 6 0.000000 0.000000 0.000000 -0.001709 -0.006862 0.019879
#
#
# Mechanical properties :
#
#
# Convention : Reuss Voigt Hill
#
# Bulk Modulus (GPa) = 32.63659 35.16989 33.90324
# Shear Modulus (GPa) = 25.29202 38.63745 31.96474
#
# Velocity S-wave (km/s) = 3.12577 3.86340 3.51399
# Velocity P-wave (km/s) = 5.06309 5.78683 5.43702
#
# Compressibility (1/GPa) = 0.03064045
#
# Stress axis : x y z
#
# Youngs Moduli (GPa) = 115.30539 115.30539 83.88098
#
# Poissons Ratio (x) = 0.14609 -0.08194
# Poissons Ratio (y) = 0.14609 -0.08194
# Poissons Ratio (z) = -0.11264 -0.11264
#
# Static dielectric constant tensor:
#      x y z
#    x 2.020130 0.000000 0.000000 
#    y 0.000000 2.020130 0.000000 
#    z 0.000000 0.000000 1.995530 
# 
# From -- ./inp_files/1276.got.cif
#   From: 2010.05.17/outbox.cif.g08.bks.cpg/sg148_1_cif.got.tgz:1276.got - 2010.05.20 13:50:20.
