data_PCOD9575598
_publ_section_title
;
Structure prediction by ZEFSAII (Michael W. Deem and Ramdas Pophale) SiO2 
 PCOD9575598
Probable space group: P 31 1 2
;
_chemical_formula_sum "Si O2"
_cell_formula_units_Z 42
_cell_length_a 14.916311
_cell_length_b 14.916311
_cell_length_c 10.539288
_cell_angle_alpha 90.000000
_cell_angle_beta 90.000000
_cell_angle_gamma 120.000000
_cell_volume 2030.788818
_symmetry_space_group_name_H-M "P 31 1 2"
_symmetry_group_IT_number 151
_symmetry_cell_setting 'hexagonal'
loop_
_space_group_symop_operation_xyz
x,y,z
-y,x-y,1/3+z
-x+y,-x,2/3+z
-y,-x,2/3-z
-x+y,y,1/3-z
x,x-y,-z
loop_
_atom_site_type_symbol
_atom_site_label
_atom_site_fract_x
_atom_site_fract_y
_atom_site_fract_z
Si Si1 0.064017 0.738420 0.609351
Si Si2 0.658649 0.228802 0.951869
Si Si3 0.349511 0.290381 0.697120
Si Si4 0.264947 0.194951 0.300688
Si Si5 0.431338 0.363450 0.124435
Si Si6 0.469159 0.938317 0.666667
Si Si7 0.097455 0.194910 0.166667
Si Si8 0.281561 0.380108 0.476874
O O1 0.081358 0.819007 0.723544
O O2 0.171104 0.797917 0.531690
O O3 0.977889 0.704493 0.500466
O O4 0.019196 0.630208 0.684397
O O5 0.737906 0.262095 0.833334
O O6 0.537112 0.166604 0.918389
O O7 0.681980 0.340990 0.000000
O O8 0.674536 0.145913 0.033278
O O9 0.291544 0.176557 0.637003
O O10 0.326451 0.365676 0.609814
O O11 0.350759 0.254800 0.189990
O O12 0.151028 0.139769 0.238146
O O13 0.274074 0.285905 0.390923
O O14 0.461428 0.448548 0.231674
O O15 0.514939 0.876909 0.739541
#
# Coordination Sequence:
#
# PCOD9575598 Si02
#       8
#     6   6   6   6   6   3   3   6
#     4  10  23  40  67  91 126 172 234 286 347 415
#     4  12  27  39  60  96 149 194 241 283 347 435
#     4  12  23  38  65  98 141 184 230 289 358 423
#     4   9  19  35  64  88 128 173 231 278 344 420
#     4  10  22  39  61  92 129 181 230 284 345 424
#     4  10  20  40  68  92 124 172 230 278 362 430
#     4   8  18  40  60  90 118 170 230 280 344 418
#     4  10  20  41  65  95 129 176 231 286 356 433
#
# _framework density 20.681619000000001
#
# number of rings (size 3 to 8) (size 9 to 14) (size 15 to 20)
#    0.000    1.714    1.429    3.429    7.000    1.714 
#    0.000    0.000   12.571    3.429    0.000    0.000 
#    0.000    0.000    0.000    0.000    0.000    0.000 
#
# Total GULP energy -233932.532507 kJ/mol
# GULP energy per Si atom -5569.822203 kJ/mol
# Density = 2.063455 g / cm^3
# Si number density = 20.681619 Si / 1000 Ang^3
#
#
#
# Elastic Constant Matrix: (Units=GPa)
#
#
# Indices 1 2 3 4 5 6 
#
# 1 94.8693 35.9979 34.4034 0.0000 -2.2849 0.0000
# 2 35.9979 94.8693 34.4034 0.0000 2.2849 0.0000
# 3 34.4034 34.4034 79.1972 0.0000 0.0000 0.0000
# 4 0.0000 0.0000 0.0000 29.6649 0.0000 2.2849
# 5 -2.2849 2.2849 0.0000 0.0000 29.6649 0.0000
# 6 0.0000 0.0000 0.0000 2.2849 0.0000 29.4357
#
#
#
# Elastic Compliance Matrix: (Units=1/GPa)
#
#
# Indices 1 2 3 4 5 6 
#
# 1 0.013496 -0.003593 -0.004302 0.000000 0.001316 0.000000
# 2 -0.003593 0.013496 -0.004302 0.000000 -0.001316 0.000000
# 3 -0.004302 -0.004302 0.016364 0.000000 0.000000 0.000000
# 4 0.000000 0.000000 0.000000 0.033913 0.000000 -0.002632
# 5 0.001316 -0.001316 0.000000 0.000000 0.033913 0.000000
# 6 0.000000 0.000000 0.000000 -0.002632 0.000000 0.034177
#
#
# Mechanical properties :
#
#
# Convention : Reuss Voigt Hill
#
# Bulk Modulus (GPa) = 52.73480 53.17168 52.95324
# Shear Modulus (GPa) = 28.39754 28.69520 28.54637
#
# Velocity S-wave (km/s) = 3.70953 3.72892 3.71924
# Velocity P-wave (km/s) = 6.62580 6.65622 6.64103
#
# Compressibility (1/GPa) = 0.01896281
#
# Stress axis : x y z
#
# Youngs Moduli (GPa) = 74.09734 74.09734 61.10879
#
# Poissons Ratio (x) = 0.26620 0.26289
# Poissons Ratio (y) = 0.26620 0.26289
# Poissons Ratio (z) = 0.31876 0.31876
#
# Static dielectric constant tensor:
#      x y z
#    x 1.752050 0.000000 0.000000 
#    y 0.000000 1.752050 0.000000 
#    z 0.000000 0.000000 1.911480 
# 
# From -- ./inp_files/2630.got.cif
#   From: 2010.05.17/outbox.cif.g08.bks.cpg/sg151_2_cif.got.tgz:2630.got - 2010.05.20 10:33:20.
