data_PCOD9575009
_publ_section_title
;
Structure prediction by ZEFSAII (Michael W. Deem and Ramdas Pophale) SiO2 
 PCOD9575009
Probable space group: R -3
;
_chemical_formula_sum "Si O2"
_cell_formula_units_Z 108
_cell_length_a 15.256492
_cell_length_b 15.256492
_cell_length_c 28.754388
_cell_angle_alpha 90.000000
_cell_angle_beta 90.000000
_cell_angle_gamma 120.000000
_cell_volume 5796.210264
_symmetry_space_group_name_H-M "R -3"
_symmetry_group_IT_number 148
_symmetry_cell_setting 'hexagonal'
loop_
_space_group_symop_operation_xyz
x,y,z
-y,x-y,z
-x+y,-x,z
-x,-y,-z
y,-x+y,-z
x-y,x,-z
2/3+x,1/3+y,1/3+z
2/3-y,1/3+x-y,1/3+z
2/3-x+y,1/3-x,1/3+z
2/3-x,1/3-y,1/3-z
2/3+y,1/3-x+y,1/3-z
2/3+x-y,1/3+x,1/3-z
1/3+x,2/3+y,2/3+z
1/3-y,2/3+x-y,2/3+z
1/3-x+y,2/3-x,2/3+z
1/3-x,2/3-y,2/3-z
1/3+y,2/3-x+y,2/3-z
1/3+x-y,2/3+x,2/3-z
loop_
_atom_site_type_symbol
_atom_site_label
_atom_site_fract_x
_atom_site_fract_y
_atom_site_fract_z
Si Si1 0.058172 0.810429 0.888653
Si Si2 0.357469 0.059721 0.924534
Si Si3 0.527416 0.939523 0.218149
Si Si4 0.162183 0.447221 0.673782
Si Si5 0.844001 0.683750 0.548404
Si Si6 0.130465 0.681594 0.829904
O O1 0.091331 0.830193 0.941974
O O2 0.109751 0.754012 0.863236
O O3 0.093640 0.914236 0.860256
O O4 0.940538 0.726270 0.889383
O O5 0.416927 0.180716 0.915004
O O6 0.432063 0.014841 0.918941
O O7 0.279572 0.015683 0.880789
O O8 0.298056 0.040583 0.972670
O O9 0.586861 0.880961 0.230772
O O10 0.499911 0.925451 0.163608
O O11 0.148334 0.543733 0.681013
O O12 0.823548 0.575844 0.527875
#
# Coordination Sequence:
#
# PCOD9575009 Si02
#       6
#    18  18  18  18  18  18
#     4  10  18  35  56  83 113 155 197 239 301 358
#     4  11  20  36  56  85 121 158 194 243 303 370
#     4  10  18  32  55  82 119 146 196 243 295 357
#     4  12  24  37  57  87 126 156 192 253 322 375
#     4  10  18  33  55  89 114 149 199 245 293 362
#     4   9  19  33  58  82 111 156 200 245 287 357
#
# _framework density 18.632864999999999
#
# number of rings (size 3 to 8) (size 9 to 14) (size 15 to 20)
#    0.000    1.667    8.333    0.167    0.000    0.000 
#    1.000    4.167    0.000    0.667    0.000    0.000 
#    0.000    0.000    0.000    0.000    0.000    0.000 
#
# Total GULP energy -200462.004110 kJ/mol
# GULP energy per Si atom -5568.389003 kJ/mol
# Density = 1.859046 g / cm^3
# Si number density = 18.632865 Si / 1000 Ang^3
#
#
#
# Elastic Constant Matrix: (Units=GPa)
#
#
# Indices 1 2 3 4 5 6 
#
# 1 77.7679 40.8733 28.6486 2.1720 -3.3508 0.0000
# 2 40.8733 77.7679 28.6486 -2.1720 3.3508 0.0000
# 3 28.6486 28.6486 79.7176 0.0000 0.0000 0.0000
# 4 2.1720 -2.1720 0.0000 21.5047 0.0000 3.3508
# 5 -3.3508 3.3508 0.0000 0.0000 21.5047 2.1720
# 6 0.0000 0.0000 0.0000 3.3508 2.1720 18.4473
#
#
#
# Elastic Compliance Matrix: (Units=1/GPa)
#
#
# Indices 1 2 3 4 5 6 
#
# 1 0.019219 -0.009020 -0.003665 -0.002852 0.004400 0.000000
# 2 -0.009020 0.019219 -0.003665 0.002852 -0.004400 0.000000
# 3 -0.003665 -0.003665 0.015179 0.000000 0.000000 0.000000
# 4 -0.002852 0.002852 0.000000 0.048449 0.000000 -0.008800
# 5 0.004400 -0.004400 0.000000 0.000000 0.048449 -0.005704
# 6 0.000000 0.000000 0.000000 -0.008800 -0.005704 0.056479
#
#
# Mechanical properties :
#
#
# Convention : Reuss Voigt Hill
#
# Bulk Modulus (GPa) = 47.81142 47.95493 47.88317
# Shear Modulus (GPa) = 20.27030 21.43021 20.85026
#
# Velocity S-wave (km/s) = 3.30188 3.39504 3.34878
# Velocity P-wave (km/s) = 6.34444 6.41568 6.38016
#
# Compressibility (1/GPa) = 0.02091551
#
# Stress axis : x y z
#
# Youngs Moduli (GPa) = 52.03161 52.03161 65.88196
#
# Poissons Ratio (x) = 0.46934 0.24147
# Poissons Ratio (y) = 0.46934 0.24147
# Poissons Ratio (z) = 0.19071 0.19071
#
# Static dielectric constant tensor:
#      x y z
#    x 1.693140 0.000000 0.000000 
#    y 0.000000 1.693140 0.000000 
#    z 0.000000 0.000000 1.653660 
# 
# From -- ./inp_files/3988.got.cif
#   From: 2010.05.17/outbox.cif.g08.bks.cpg/sg148_2_cif.got.tgz:3988.got - 2010.05.20 13:50:20.
