data_PCOD9575702
_publ_section_title
;
Structure prediction by ZEFSAII (Michael W. Deem and Ramdas Pophale) SiO2 
 PCOD9575702
Probable space group: P 31 2 1
;
_chemical_formula_sum "Si O2"
_cell_formula_units_Z 21
_cell_length_a 12.181082
_cell_length_b 12.181082
_cell_length_c 8.847643
_cell_angle_alpha 90.000000
_cell_angle_beta 90.000000
_cell_angle_gamma 120.000000
_cell_volume 1136.920130
_symmetry_space_group_name_H-M "P 31 2 1"
_symmetry_group_IT_number 152
_symmetry_cell_setting 'hexagonal'
loop_
_space_group_symop_operation_xyz
x,y,z
-y,x-y,1/3+z
-x+y,-x,2/3+z
x-y,-y,2/3-z
-x,-x+y,1/3-z
y,x,-z
loop_
_atom_site_type_symbol
_atom_site_label
_atom_site_fract_x
_atom_site_fract_y
_atom_site_fract_z
Si Si1 0.365091 0.365091 0.000000
Si Si2 0.507348 0.056846 0.620102
Si Si3 0.803892 0.271696 0.390679
Si Si4 0.469546 0.720430 0.940493
O O1 0.446083 0.434849 0.149972
O O2 0.236002 0.369013 0.004045
O O3 0.818262 0.276681 0.572587
O O4 0.622284 0.144298 0.731559
O O5 0.479539 0.158495 0.535223
O O6 0.933048 0.383129 0.325786
O O7 0.677487 0.284381 0.369108
#
# Coordination Sequence:
#
# PCOD9575702 Si02
#       4
#     3   6   6   6
#     4   8  16  24  42  70  88 138 156 186 240 288
#     4  10  15  29  44  66 104 123 155 202 238 286
#     4  10  14  28  43  66 102 123 160 191 244 287
#     4   8  17  25  43  70  94 123 161 188 248 283
#
# _framework density 18.470956000000001
#
# number of rings (size 3 to 8) (size 9 to 14) (size 15 to 20)
#    0.000    3.429    5.714    0.000    0.000    0.000 
#    0.000    5.714    0.000    0.000    0.000    0.000 
#   51.429   14.286    0.000    0.000    0.000    0.000 
#
# Total GULP energy -116960.743687 kJ/mol
# GULP energy per Si atom -5569.559223 kJ/mol
# Density = 1.842892 g / cm^3
# Si number density = 18.470956 Si / 1000 Ang^3
#
#
#
# Elastic Constant Matrix: (Units=GPa)
#
#
# Indices 1 2 3 4 5 6 
#
# 1 112.2501 35.6260 8.6134 -6.6868 0.0000 0.0000
# 2 35.6260 112.2501 8.6134 6.6868 0.0000 0.0000
# 3 8.6134 8.6134 38.4501 0.0000 0.0000 0.0000
# 4 -6.6868 6.6868 0.0000 20.1167 0.0000 0.0000
# 5 0.0000 0.0000 0.0000 0.0000 20.1167 -6.6868
# 6 0.0000 0.0000 0.0000 0.0000 -6.6868 38.3120
#
#
#
# Elastic Compliance Matrix: (Units=1/GPa)
#
#
# Indices 1 2 3 4 5 6 
#
# 1 0.010399 -0.003455 -0.001555 0.004605 0.000000 0.000000
# 2 -0.003455 0.010399 -0.001555 -0.004605 0.000000 0.000000
# 3 -0.001555 -0.001555 0.026705 0.000000 0.000000 0.000000
# 4 0.004605 -0.004605 0.000000 0.052772 0.000000 0.000000
# 5 0.000000 0.000000 0.000000 0.000000 0.052772 0.009211
# 6 0.000000 0.000000 0.000000 0.000000 0.009211 0.027709
#
#
# Mechanical properties :
#
#
# Convention : Reuss Voigt Hill
#
# Bulk Modulus (GPa) = 29.09516 40.96176 35.02846
# Shear Modulus (GPa) = 24.34935 29.71559 27.03247
#
# Velocity S-wave (km/s) = 3.63471 4.01530 3.82974
# Velocity P-wave (km/s) = 5.77935 6.61221 6.20976
#
# Compressibility (1/GPa) = 0.03436997
#
# Stress axis : x y z
#
# Youngs Moduli (GPa) = 96.16248 96.16248 37.44672
#
# Poissons Ratio (x) = 0.33228 0.05825
# Poissons Ratio (y) = 0.33228 0.05825
# Poissons Ratio (z) = 0.14958 0.14958
#
# Static dielectric constant tensor:
#      x y z
#    x 1.667340 0.000000 0.000000 
#    y 0.000000 1.667340 0.000000 
#    z 0.000000 0.000000 1.727950 
# 
# From -- ./inp_files/914.got.cif
#   From: 2010.05.17/outbox.cif.g08.bks.cpg/sg152_1_cif.got.tgz:914.got - 2010.05.20 10:36:06.
