data_PCOD9575729
_publ_section_title
;
Structure prediction by ZEFSAII (Michael W. Deem and Ramdas Pophale) SiO2 
 PCOD9575729
Probable space group: P 31 2 1
;
_chemical_formula_sum "Si O2"
_cell_formula_units_Z 30
_cell_length_a 11.794650
_cell_length_b 11.794650
_cell_length_c 14.902694
_cell_angle_alpha 90.000000
_cell_angle_beta 90.000000
_cell_angle_gamma 120.000000
_cell_volume 1795.417821
_symmetry_space_group_name_H-M "P 31 2 1"
_symmetry_group_IT_number 152
_symmetry_cell_setting 'hexagonal'
loop_
_space_group_symop_operation_xyz
x,y,z
-y,x-y,1/3+z
-x+y,-x,2/3+z
x-y,-y,2/3-z
-x,-x+y,1/3-z
y,x,-z
loop_
_atom_site_type_symbol
_atom_site_label
_atom_site_fract_x
_atom_site_fract_y
_atom_site_fract_z
Si Si1 0.737785 0.421858 0.014137
Si Si2 0.339157 0.875513 0.771764
Si Si3 0.802779 0.408188 0.495478
Si Si4 0.383963 0.968612 0.061887
Si Si5 0.407846 0.257760 0.511442
O O1 0.640977 0.296874 0.076825
O O2 0.783260 0.542630 0.081277
O O3 0.678540 0.431496 0.919531
O O4 0.868671 0.416636 0.990817
O O5 0.217059 0.746620 0.811148
O O6 0.464062 0.849396 0.777003
O O7 0.381529 0.000000 0.833334
O O8 0.322044 0.921564 0.674967
O O9 0.947278 0.441357 0.468916
O O10 0.240874 0.872841 0.100435
O O11 0.299849 0.299849 0.500000
#
# Coordination Sequence:
#
# PCOD9575729 Si02
#       5
#     6   6   6   6   6
#     4  11  20  34  50  83 115 148 186 242 294 357
#     4  10  18  30  51  79 115 144 186 238 291 354
#     4  11  21  33  52  83 120 145 191 235 295 361
#     4  12  19  32  56  77 115 160 179 242 306 339
#     4  10  20  33  52  80 114 149 197 235 289 364
#
# _framework density 16.709202000000001
#
# number of rings (size 3 to 8) (size 9 to 14) (size 15 to 20)
#    0.000    1.200   12.000    0.000    0.000    0.800 
#    0.000    0.000    0.000    0.000    0.000    7.000 
#    0.000    0.000    0.000    0.000    0.000    0.000 
#
# Total GULP energy -167022.802734 kJ/mol
# GULP energy per Si atom -5567.426758 kJ/mol
# Density = 1.667117 g / cm^3
# Si number density = 16.709202 Si / 1000 Ang^3
#
#
#
# Elastic Constant Matrix: (Units=GPa)
#
#
# Indices 1 2 3 4 5 6 
#
# 1 66.3128 25.5099 30.1328 -2.9948 0.0000 0.0000
# 2 25.5099 66.3128 30.1328 2.9948 0.0000 0.0000
# 3 30.1328 30.1328 104.0903 0.0000 0.0000 0.0000
# 4 -2.9948 2.9948 0.0000 25.2935 0.0000 0.0000
# 5 0.0000 0.0000 0.0000 0.0000 25.2935 -2.9948
# 6 0.0000 0.0000 0.0000 0.0000 -2.9948 20.4014
#
#
#
# Elastic Compliance Matrix: (Units=1/GPa)
#
#
# Indices 1 2 3 4 5 6 
#
# 1 0.019193 -0.005748 -0.003892 0.002953 0.000000 0.000000
# 2 -0.005748 0.019193 -0.003892 -0.002953 0.000000 0.000000
# 3 -0.003892 -0.003892 0.011861 0.000000 0.000000 0.000000
# 4 0.002953 -0.002953 0.000000 0.040235 0.000000 0.000000
# 5 0.000000 0.000000 0.000000 0.000000 0.040235 0.005906
# 6 0.000000 0.000000 0.000000 0.000000 0.005906 0.049883
#
#
# Mechanical properties :
#
#
# Convention : Reuss Voigt Hill
#
# Bulk Modulus (GPa) = 43.13696 45.36299 44.24998
# Shear Modulus (GPa) = 23.21336 24.26037 23.73687
#
# Velocity S-wave (km/s) = 3.73132 3.81454 3.77316
# Velocity P-wave (km/s) = 6.66603 6.82703 6.74701
#
# Compressibility (1/GPa) = 0.02318198
#
# Stress axis : x y z
#
# Youngs Moduli (GPa) = 52.10144 52.10144 84.31337
#
# Poissons Ratio (x) = 0.29949 0.32816
# Poissons Ratio (y) = 0.29949 0.32816
# Poissons Ratio (z) = 0.20279 0.20279
#
# Static dielectric constant tensor:
#      x y z
#    x 1.564390 0.000000 0.000000 
#    y 0.000000 1.564390 0.000000 
#    z 0.000000 0.000000 1.643130 
# 
# From -- ./inp_files/1951.got.cif
#   From: 2010.05.17/outbox.cif.g08.bks.cpg/sg152_1_cif.got.tgz:1951.got - 2010.05.20 10:36:06.
