data_PCOD9576967
_publ_section_title
;
Structure prediction by ZEFSAII (Michael W. Deem and Ramdas Pophale) SiO2 
 PCOD9576967
Probable space group: R 3 2
;
_chemical_formula_sum "Si O2"
_cell_formula_units_Z 144
_cell_length_a 31.823618
_cell_length_b 31.823618
_cell_length_c 9.461199
_cell_angle_alpha 90.000000
_cell_angle_beta 90.000000
_cell_angle_gamma 120.000000
_cell_volume 8298.047458
_symmetry_space_group_name_H-M "R 3 2"
_symmetry_group_IT_number 155
_symmetry_cell_setting 'hexagonal'
loop_
_space_group_symop_operation_xyz
x,y,z
-y,x-y,z
-x+y,-x,z
x-y,-y,-z
-x,-x+y,-z
y,x,-z
2/3+x,1/3+y,1/3+z
2/3-y,1/3+x-y,1/3+z
2/3-x+y,1/3-x,1/3+z
2/3+x-y,1/3-y,1/3-z
2/3-x,1/3-x+y,1/3-z
2/3+y,1/3+x,1/3-z
1/3+x,2/3+y,2/3+z
1/3-y,2/3+x-y,2/3+z
1/3-x+y,2/3-x,2/3+z
1/3+x-y,2/3-y,2/3-z
1/3-x,2/3-x+y,2/3-z
1/3+y,2/3+x,2/3-z
loop_
_atom_site_type_symbol
_atom_site_label
_atom_site_fract_x
_atom_site_fract_y
_atom_site_fract_z
Si Si1 0.810230 0.523006 0.747768
Si Si2 0.057611 0.480650 0.311827
Si Si3 0.882017 0.544174 0.490433
Si Si4 0.287222 0.810245 0.252241
Si Si5 0.992194 0.608170 0.159004
Si Si6 0.609044 0.852688 0.021497
Si Si7 0.882036 0.337851 0.490440
Si Si8 0.941503 0.282635 0.507665
O O1 0.815486 0.482153 0.833334
O O2 0.840114 0.533298 0.603523
O O3 0.755905 0.511818 0.726204
O O4 0.836873 0.570726 0.848128
O O5 0.095920 0.496457 0.181434
O O6 0.041972 0.520992 0.325600
O O7 0.086937 0.478997 0.447895
O O8 0.014919 0.427331 0.271822
O O9 0.862084 0.528750 0.333334
O O10 0.918223 0.601985 0.487075
O O11 0.913056 0.521004 0.552083
O O12 0.333334 0.815511 0.166667
O O13 0.306813 0.840132 0.396479
O O14 0.020734 0.666667 0.166667
O O15 0.014936 0.587611 0.271817
O O16 0.000000 0.595156 0.000000
O O17 0.862104 0.333334 0.333334
O O18 0.918251 0.316256 0.487093
O O19 0.928481 0.261815 0.666667
O O20 0.000000 0.312569 0.500000
#
# Coordination Sequence:
#
# PCOD9576967 Si02
#       8
#    18  18  18  18  18  18  18  18
#     4   9  18  36  58  80 106 140 178 215 259 316
#     4  10  21  37  54  76 105 138 181 226 265 311
#     4  11  23  35  53  80 108 140 178 221 268 319
#     4   9  18  36  58  80 106 140 178 215 259 316
#     4  12  20  35  57  74 101 138 188 226 265 313
#     4  10  21  37  54  76 105 138 181 226 265 311
#     4  11  23  35  53  80 108 140 178 221 268 319
#     4  12  20  35  57  74 101 138 188 226 265 313
#
# _framework density 17.353480999999999
#
# number of rings (size 3 to 8) (size 9 to 14) (size 15 to 20)
#    0.000    1.500    5.000    1.500    0.000    2.500 
#    0.000    1.250    0.000    0.250    0.000    0.000 
#    0.000    1.000    0.000    0.000    0.000    0.000 
#
# Total GULP energy -268107.845709 kJ/mol
# GULP energy per Si atom -5585.580119 kJ/mol
# Density = 1.731398 g / cm^3
# Si number density = 17.353481 Si / 1000 Ang^3
#
#
#
# Elastic Constant Matrix: (Units=GPa)
#
#
# Indices 1 2 3 4 5 6 
#
# 1 82.7127 66.5361 28.6428 -2.1948 0.0260 -0.0083
# 2 66.5361 82.6913 28.5781 2.1885 -0.0031 -0.0084
# 3 28.6428 28.5781 121.0985 -0.0122 0.0321 -0.0186
# 4 -2.1948 2.1885 -0.0122 9.9535 -0.0105 0.0119
# 5 0.0260 -0.0031 0.0321 -0.0105 9.9417 -2.2025
# 6 -0.0083 -0.0084 -0.0186 0.0119 -2.2025 8.0777
#
#
#
# Elastic Compliance Matrix: (Units=1/GPa)
#
#
# Indices 1 2 3 4 5 6 
#
# 1 0.036580 -0.029209 -0.001757 0.014486 -0.000093 -0.000044
# 2 -0.029209 0.036575 -0.001724 -0.014485 0.000089 0.000050
# 3 -0.001757 -0.001724 0.009080 0.000003 -0.000023 0.000011
# 4 0.014486 -0.014485 0.000003 0.106846 0.000038 -0.000148
# 5 -0.000093 0.000089 -0.000023 0.000038 0.107054 0.029190
# 6 -0.000044 0.000050 0.000011 -0.000148 0.029190 0.131758
#
#
# Mechanical properties :
#
#
# Convention : Reuss Voigt Hill
#
# Bulk Modulus (GPa) = 59.33494 59.33518 59.33506
# Shear Modulus (GPa) = 10.02221 16.44428 13.23324
#
# Velocity S-wave (km/s) = 2.40580 3.08166 2.76446
# Velocity P-wave (km/s) = 6.47945 6.85044 6.66753
#
# Compressibility (1/GPa) = 0.01685348
#
# Stress axis : x y z
#
# Youngs Moduli (GPa) = 27.33753 27.34097 110.12851
#
# Poissons Ratio (x) = 0.79861 0.19354
# Poissons Ratio (y) = 0.79851 0.18988
# Poissons Ratio (z) = 0.04804 0.04714
#
# Static dielectric constant tensor:
#      x y z
#    x 1.574290 0.000000 -0.000010 
#    y 0.000000 1.574290 0.000000 
#    z -0.000010 0.000000 1.646570 
# 
# From -- ./inp_files/3073.got.cif
#   From: 2010.05.17/outbox.cif.g08.bks.cpg/sg155_2_cif.got.tgz:3073.got - 2010.05.20 10:44:35.
