data_PCOD9576932
_publ_section_title
;
Structure prediction by ZEFSAII (Michael W. Deem and Ramdas Pophale) SiO2 
 PCOD9576932
Probable space group: R 3 2
;
_chemical_formula_sum "Si O2"
_cell_formula_units_Z 90
_cell_length_a 17.738828
_cell_length_b 17.738828
_cell_length_c 15.064322
_cell_angle_alpha 90.000000
_cell_angle_beta 90.000000
_cell_angle_gamma 120.000000
_cell_volume 4105.159799
_symmetry_space_group_name_H-M "R 3 2"
_symmetry_group_IT_number 155
_symmetry_cell_setting 'hexagonal'
loop_
_space_group_symop_operation_xyz
x,y,z
-y,x-y,z
-x+y,-x,z
x-y,-y,-z
-x,-x+y,-z
y,x,-z
2/3+x,1/3+y,1/3+z
2/3-y,1/3+x-y,1/3+z
2/3-x+y,1/3-x,1/3+z
2/3+x-y,1/3-y,1/3-z
2/3-x,1/3-x+y,1/3-z
2/3+y,1/3+x,1/3-z
1/3+x,2/3+y,2/3+z
1/3-y,2/3+x-y,2/3+z
1/3-x+y,2/3-x,2/3+z
1/3+x-y,2/3-y,2/3-z
1/3-x,2/3-x+y,2/3-z
1/3+y,2/3+x,2/3-z
loop_
_atom_site_type_symbol
_atom_site_label
_atom_site_fract_x
_atom_site_fract_y
_atom_site_fract_z
Si Si1 0.388028 0.209389 0.035957
Si Si2 0.701297 0.567254 0.663142
Si Si3 0.763368 0.232682 0.351814
Si Si4 0.225295 0.130804 0.505059
Si Si5 0.587518 0.855433 0.454621
O O1 0.433690 0.153542 0.060094
O O2 0.283759 0.157328 0.040740
O O3 0.412288 0.216685 0.930565
O O4 0.425596 0.299829 0.087787
O O5 0.722790 0.666667 0.666667
O O6 0.720236 0.546719 0.763129
O O7 0.776751 0.561783 0.611941
O O8 0.831110 0.333334 0.333334
O O9 0.666667 0.213262 0.333334
O O10 0.751689 0.191995 0.450243
O O11 0.140692 0.140692 0.500000
O O12 0.307291 0.218567 0.547015
#
# Coordination Sequence:
#
# PCOD9576932 Si02
#       5
#    18  18  18  18  18
#     4  11  23  41  70 101 128 178 233 267 333 422
#     4  10  21  41  65  96 134 170 217 280 341 395
#     4  11  27  47  67  97 139 179 225 289 344 393
#     4  10  20  38  65  95 136 168 212 279 336 385
#     4  10  24  40  67  99 127 176 222 280 328 398
#
# _framework density 21.923629999999999
#
# number of rings (size 3 to 8) (size 9 to 14) (size 15 to 20)
#    0.000    1.600    2.000    1.400    8.400    0.000 
#    1.200    2.000    0.000    0.000    0.000    0.000 
#    0.000    0.000    0.000    0.000    0.000    0.000 
#
# Total GULP energy -167259.156451 kJ/mol
# GULP energy per Si atom -5575.305215 kJ/mol
# Density = 2.187373 g / cm^3
# Si number density = 21.923630 Si / 1000 Ang^3
#
#
#
# Elastic Constant Matrix: (Units=GPa)
#
#
# Indices 1 2 3 4 5 6 
#
# 1 95.2943 56.6982 15.7309 0.6136 -0.0003 0.0000
# 2 56.6982 95.2943 15.7309 -0.6136 0.0003 0.0000
# 3 15.7309 15.7309 66.6677 0.0000 0.0000 0.0000
# 4 0.6136 -0.6136 0.0000 10.7211 0.0000 0.0003
# 5 -0.0003 0.0003 0.0000 0.0000 10.7211 0.6136
# 6 0.0000 0.0000 0.0000 0.0003 0.6136 19.2981
#
#
#
# Elastic Compliance Matrix: (Units=1/GPa)
#
#
# Indices 1 2 3 4 5 6 
#
# 1 0.016437 -0.009520 -0.001632 -0.001486 0.000001 0.000000
# 2 -0.009520 0.016437 -0.001632 0.001486 -0.000001 0.000000
# 3 -0.001632 -0.001632 0.015770 0.000000 0.000000 0.000000
# 4 -0.001486 0.001486 0.000000 0.093444 0.000000 -0.000001
# 5 0.000001 -0.000001 0.000000 0.000000 0.093444 -0.002971
# 6 0.000000 0.000000 0.000000 -0.000001 -0.002971 0.051913
#
#
# Mechanical properties :
#
#
# Convention : Reuss Voigt Hill
#
# Bulk Modulus (GPa) = 43.33581 48.17514 45.75548
# Shear Modulus (GPa) = 15.59066 19.42114 17.50590
#
# Velocity S-wave (km/s) = 2.66960 2.97956 2.82883
# Velocity P-wave (km/s) = 5.41406 5.81883 5.62009
#
# Compressibility (1/GPa) = 0.02307560
#
# Stress axis : x y z
#
# Youngs Moduli (GPa) = 60.83890 60.83890 63.41151
#
# Poissons Ratio (x) = 0.57917 0.10350
# Poissons Ratio (y) = 0.57917 0.10350
# Poissons Ratio (z) = 0.09930 0.09930
#
# Static dielectric constant tensor:
#      x y z
#    x 1.813110 0.000000 0.000000 
#    y 0.000000 1.813110 0.000000 
#    z 0.000000 0.000000 1.948470 
# 
# From -- ./inp_files/6113.got.cif
#   From: 2010.05.17/outbox.cif.g08.bks.cpg/sg155_4_cif.got.tgz:6113.got - 2010.05.20 10:44:35.
