data_PCOD9576023
_publ_section_title
;
Structure prediction by ZEFSAII (Michael W. Deem and Ramdas Pophale) SiO2 
 PCOD9576023
Probable space group: P 31 2 1
;
_chemical_formula_sum "Si O2"
_cell_formula_units_Z 42
_cell_length_a 9.143762
_cell_length_b 9.143762
_cell_length_c 25.434816
_cell_angle_alpha 90.000000
_cell_angle_beta 90.000000
_cell_angle_gamma 120.000000
_cell_volume 1841.658317
_symmetry_space_group_name_H-M "P 31 2 1"
_symmetry_group_IT_number 152
_symmetry_cell_setting 'hexagonal'
loop_
_space_group_symop_operation_xyz
x,y,z
-y,x-y,1/3+z
-x+y,-x,2/3+z
x-y,-y,2/3-z
-x,-x+y,1/3-z
y,x,-z
loop_
_atom_site_type_symbol
_atom_site_label
_atom_site_fract_x
_atom_site_fract_y
_atom_site_fract_z
Si Si1 0.624220 0.624220 0.500000
Si Si2 0.727484 0.251945 0.728122
Si Si3 0.253081 0.391573 0.240919
Si Si4 0.292723 0.398845 0.436275
Si Si5 0.063117 0.960275 0.726602
Si Si6 0.103571 0.103571 0.500000
Si Si7 0.400073 0.433933 0.063313
Si Si8 0.214982 0.654432 0.393859
O O1 0.644695 0.799388 0.519187
O O2 0.470064 0.547513 0.458809
O O3 0.572774 0.280199 0.743788
O O4 0.884344 0.421468 0.749888
O O5 0.712495 0.223728 0.665744
O O6 0.718907 0.080183 0.746790
O O7 0.414212 0.367458 0.245306
O O8 0.103637 0.257327 0.277497
O O9 0.152891 0.293170 0.480489
O O10 0.217157 0.480004 0.397446
O O11 0.996321 0.015987 0.778696
O O12 0.036540 0.775106 0.740055
O O13 0.000000 0.955914 0.666667
O O14 0.402083 0.603245 0.081098
O O15 0.422456 0.422456 0.000000
#
# Coordination Sequence:
#
# PCOD9576023 Si02
#       8
#     3   6   6   6   6   3   6   6
#     4   9  21  48  62  88 140 194 232 294 372 418
#     4  10  22  41  74 105 145 183 241 295 368 445
#     4  11  24  42  70 102 136 190 235 297 354 441
#     4  10  23  45  69  98 149 193 234 308 367 439
#     4  11  26  45  74 102 150 195 247 308 381 436
#     4  11  27  46  72 104 144 192 254 308 366 448
#     4   9  21  42  68 108 148 188 234 307 370 441
#     4  11  23  39  71 112 142 183 242 295 370 440
#
# _framework density 22.805534999999999
#
# number of rings (size 3 to 8) (size 9 to 14) (size 15 to 20)
#    0.000    1.714    0.000    3.000    8.000    1.714 
#    2.571    5.714    0.000    0.000    0.000    0.000 
#    0.000    0.000    0.000    0.000    0.000    0.000 
#
# Total GULP energy -233892.740370 kJ/mol
# GULP energy per Si atom -5568.874771 kJ/mol
# Density = 2.275363 g / cm^3
# Si number density = 22.805535 Si / 1000 Ang^3
#
#
#
# Elastic Constant Matrix: (Units=GPa)
#
#
# Indices 1 2 3 4 5 6 
#
# 1 82.8215 104.4596 31.8473 23.1494 0.0009 0.0000
# 2 104.4596 82.8215 31.8473 -23.1494 -0.0009 0.0000
# 3 31.8473 31.8473 83.2697 0.0000 0.0000 0.0000
# 4 23.1494 -23.1494 0.0000 2.7466 0.0000 -0.0009
# 5 0.0009 -0.0009 0.0000 0.0000 2.7466 23.1494
# 6 0.0000 0.0000 0.0000 -0.0009 23.1494 -10.8190
#
#
#
# Elastic Compliance Matrix: (Units=1/GPa)
#
#
# Indices 1 2 3 4 5 6 
#
# 1 0.001855 0.004283 -0.002348 0.020464 0.000001 0.000000
# 2 0.004283 0.001855 -0.002348 -0.020464 -0.000001 0.000000
# 3 -0.002348 -0.002348 0.013805 0.000000 0.000000 0.000000
# 4 0.020464 -0.020464 0.000000 0.019128 0.000000 -0.000002
# 5 0.000001 -0.000001 0.000000 0.000000 0.019128 0.040928
# 6 0.000000 0.000000 0.000000 -0.000002 0.040928 -0.004856
#
#
# Mechanical properties :
#
#
# Convention : Reuss Voigt Hill
#
# Bulk Modulus (GPa) = 59.91373 65.02459 62.46916
# Shear Modulus (GPa) = 87.25597 4.31872 45.78735
#
# Velocity S-wave (km/s) = 6.19225 1.37762 4.48563
# Velocity P-wave (km/s) = 8.80079 5.57718 7.36746
#
# Compressibility (1/GPa) = 0.01669066
#
# Stress axis : x y z
#
# Youngs Moduli (GPa) = 539.08313 539.08313 72.43834
#
# Poissons Ratio (x) = -2.30887 0.17005
# Poissons Ratio (y) = -2.30887 0.17005
# Poissons Ratio (z) = 1.26551 1.26551
#
# Static dielectric constant tensor:
#      x y z
#    x 1.905210 0.000000 0.000000 
#    y 0.000000 1.905210 0.000000 
#    z 0.000000 0.000000 2.002190 
# 
# From -- ./inp_files/3759.got.cif
#   From: 2010.05.17/outbox.cif.g08.bks.cpg/sg152_2_cif.got.tgz:3759.got - 2010.05.20 10:36:06.
