data_PCOD9576364
_publ_section_title
;
Structure prediction by ZEFSAII (Michael W. Deem and Ramdas Pophale) SiO2 
 PCOD9576364
Probable space group: P 32 1 2
;
_chemical_formula_sum "Si O2"
_cell_formula_units_Z 24
_cell_length_a 7.815085
_cell_length_b 7.815085
_cell_length_c 18.061211
_cell_angle_alpha 90.000000
_cell_angle_beta 90.000000
_cell_angle_gamma 120.000000
_cell_volume 955.311289
_symmetry_space_group_name_H-M "P 32 1 2"
_symmetry_group_IT_number 153
_symmetry_cell_setting 'hexagonal'
loop_
_space_group_symop_operation_xyz
x,y,z
-y,x-y,2/3+z
-x+y,-x,1/3+z
-y,-x,1/3-z
-x+y,y,2/3-z
x,x-y,-z
loop_
_atom_site_type_symbol
_atom_site_label
_atom_site_fract_x
_atom_site_fract_y
_atom_site_fract_z
Si Si1 0.930624 0.069377 0.166667
Si Si2 0.794437 0.800581 0.672611
Si Si3 0.030017 0.546138 0.287485
Si Si4 0.731039 0.365520 0.000000
Si Si5 0.297180 0.891103 0.777287
O O1 0.959055 0.203790 0.094365
O O2 0.156248 0.181506 0.195813
O O3 0.660334 0.887842 0.642136
O O4 0.707350 0.585166 0.637330
O O5 0.018742 0.981259 0.666667
O O6 0.055471 0.448571 0.363045
O O7 0.152206 0.500321 0.227509
O O8 0.795620 0.421743 0.274884
O O9 0.471102 0.942204 0.833334
#
# Coordination Sequence:
#
# PCOD9576364 Si02
#       5
#     3   6   6   3   6
#     4  12  24  44  72 108 146 196 248 302 374 442
#     4  12  26  49  75 106 150 196 244 309 375 438
#     4  11  24  46  73 107 147 194 245 306 376 433
#     4  12  24  46  72 104 142 194 238 296 372 438
#     4  11  23  44  74 108 150 193 247 312 366 445
#
# _framework density 25.122699000000001
#
# number of rings (size 3 to 8) (size 9 to 14) (size 15 to 20)
#    0.000    0.500    6.250    3.000    0.000    0.000 
#    4.500    2.500    0.000    0.000    0.000    0.000 
#    0.000    0.000    0.000    0.000    0.000    0.000 
#
# Total GULP energy -133873.446842 kJ/mol
# GULP energy per Si atom -5578.060285 kJ/mol
# Density = 2.506552 g / cm^3
# Si number density = 25.122699 Si / 1000 Ang^3
#
#
#
# Elastic Constant Matrix: (Units=GPa)
#
#
# Indices 1 2 3 4 5 6 
#
# 1 177.5237 73.0215 10.1469 -0.0002 1.2547 0.0000
# 2 73.0215 177.5237 10.1469 0.0002 -1.2547 0.0000
# 3 10.1469 10.1469 60.0244 0.0000 0.0000 0.0000
# 4 -0.0002 0.0002 0.0000 24.3904 0.0000 -1.2547
# 5 1.2547 -1.2547 0.0000 0.0000 24.3904 -0.0002
# 6 0.0000 0.0000 0.0000 -1.2547 -0.0002 52.2511
#
#
#
# Elastic Compliance Matrix: (Units=1/GPa)
#
#
# Indices 1 2 3 4 5 6 
#
# 1 0.006814 -0.002767 -0.000684 0.000000 -0.000493 0.000000
# 2 -0.002767 0.006814 -0.000684 0.000000 0.000493 0.000000
# 3 -0.000684 -0.000684 0.016891 0.000000 0.000000 0.000000
# 4 0.000000 0.000000 0.000000 0.041050 0.000000 0.000986
# 5 -0.000493 0.000493 0.000000 0.000000 0.041050 0.000000
# 6 0.000000 0.000000 0.000000 0.000986 0.000000 0.019162
#
#
# Mechanical properties :
#
#
# Convention : Reuss Voigt Hill
#
# Bulk Modulus (GPa) = 44.94735 66.85582 55.90158
# Shear Modulus (GPa) = 33.90558 41.65683 37.78120
#
# Velocity S-wave (km/s) = 3.67767 4.07644 3.88218
# Velocity P-wave (km/s) = 5.99697 6.98756 6.51113
#
# Compressibility (1/GPa) = 0.02224825
#
# Stress axis : x y z
#
# Youngs Moduli (GPa) = 146.75973 146.75973 59.20255
#
# Poissons Ratio (x) = 0.40611 0.04050
# Poissons Ratio (y) = 0.40611 0.04050
# Poissons Ratio (z) = 0.10040 0.10040
#
# Static dielectric constant tensor:
#      x y z
#    x 2.079690 0.000000 0.000000 
#    y 0.000000 2.079690 0.000000 
#    z 0.000000 0.000000 2.156100 
# 
# From -- ./inp_files/3830.got.cif
#   From: 2010.05.17/outbox.cif.g08.bks.cpg/sg153_2_cif.got.tgz:3830.got - 2010.05.20 10:38:56.
