data_PCOD9576542
_publ_section_title
;
Structure prediction by ZEFSAII (Michael W. Deem and Ramdas Pophale) SiO2 
 PCOD9576542
Probable space group: P 32 2 1
;
_chemical_formula_sum "Si O2"
_cell_formula_units_Z 42
_cell_length_a 17.768850
_cell_length_b 17.768850
_cell_length_c 8.348305
_cell_angle_alpha 90.000000
_cell_angle_beta 90.000000
_cell_angle_gamma 120.000000
_cell_volume 2282.693391
_symmetry_space_group_name_H-M "P 32 2 1"
_symmetry_group_IT_number 154
_symmetry_cell_setting 'hexagonal'
loop_
_space_group_symop_operation_xyz
x,y,z
-y,x-y,2/3+z
-x+y,-x,1/3+z
x-y,-y,1/3-z
-x,-x+y,2/3-z
y,x,-z
loop_
_atom_site_type_symbol
_atom_site_label
_atom_site_fract_x
_atom_site_fract_y
_atom_site_fract_z
Si Si1 0.433605 0.751331 0.431003
Si Si2 0.819979 0.141846 0.633554
Si Si3 0.853777 0.000000 0.166667
Si Si4 0.730672 0.019070 0.916611
Si Si5 0.545014 0.360278 0.573502
Si Si6 0.589243 0.000000 0.166667
Si Si7 0.250869 0.745340 0.433635
Si Si8 0.104729 0.969462 0.347441
O O1 0.480346 0.789080 0.262314
O O2 0.404809 0.649368 0.423067
O O3 0.348687 0.762561 0.436862
O O4 0.480305 0.787690 0.600535
O O5 0.744120 0.064911 0.529121
O O6 0.823188 0.230957 0.590174
O O7 0.907974 0.141450 0.598790
O O8 0.790059 0.105395 0.813526
O O9 0.797326 0.002526 0.314651
O O10 0.949286 0.080600 0.130734
O O11 0.661000 0.026671 0.026259
O O12 0.500648 0.419350 0.558352
O O13 0.511915 0.303892 0.734737
O O14 0.000000 0.912395 0.333334
O O15 0.135863 0.000000 0.166667
#
# Coordination Sequence:
#
# PCOD9576542 Si02
#       8
#     6   6   3   6   6   3   6   6
#     4  10  21  38  67  94 115 158 221 246 309 386
#     4  11  21  35  55  86 122 154 206 261 322 367
#     4  11  22  36  58  76 113 168 218 260 293 368
#     4  10  21  36  51  84 121 158 206 250 313 379
#     4  11  19  37  61  95 122 153 207 258 306 377
#     4  11  22  34  58  90 125 156 192 262 329 366
#     4  11  19  37  64  90 122 157 196 270 312 374
#     4  12  21  34  57  85 115 160 216 264 305 372
#
# _framework density 18.399318000000001
#
# number of rings (size 3 to 8) (size 9 to 14) (size 15 to 20)
#    0.000    1.143    7.857    0.857    0.000    0.000 
#    0.000    0.000    6.286    0.000    7.429    0.000 
#    0.000    0.000    0.000    0.000    0.000    0.000 
#
# Total GULP energy -234027.516957 kJ/mol
# GULP energy per Si atom -5572.083737 kJ/mol
# Density = 1.835744 g / cm^3
# Si number density = 18.399318 Si / 1000 Ang^3
#
#
#
# Elastic Constant Matrix: (Units=GPa)
#
#
# Indices 1 2 3 4 5 6 
#
# 1 85.7235 35.1830 15.7399 -3.6740 0.0000 0.0000
# 2 35.1830 85.7235 15.7399 3.6740 0.0000 0.0000
# 3 15.7399 15.7399 116.1174 0.0000 0.0000 0.0000
# 4 -3.6740 3.6740 0.0000 11.9788 0.0000 0.0000
# 5 0.0000 0.0000 0.0000 0.0000 11.9788 -3.6740
# 6 0.0000 0.0000 0.0000 0.0000 -3.6740 25.2702
#
#
#
# Elastic Compliance Matrix: (Units=1/GPa)
#
#
# Indices 1 2 3 4 5 6 
#
# 1 0.014642 -0.006068 -0.001162 0.006352 0.000000 0.000000
# 2 -0.006068 0.014642 -0.001162 -0.006352 0.000000 0.000000
# 3 -0.001162 -0.001162 0.008927 0.000000 0.000000 0.000000
# 4 0.006352 -0.006352 0.000000 0.087377 0.000000 0.000000
# 5 0.000000 0.000000 0.000000 0.000000 0.087377 0.012703
# 6 0.000000 0.000000 0.000000 0.000000 0.012703 0.041419
#
#
# Mechanical properties :
#
#
# Convention : Reuss Voigt Hill
#
# Bulk Modulus (GPa) = 46.67370 46.76553 46.71962
# Shear Modulus (GPa) = 17.96561 24.57235 21.26898
#
# Velocity S-wave (km/s) = 3.12817 3.65842 3.40364
# Velocity P-wave (km/s) = 6.20238 6.58161 6.39480
#
# Compressibility (1/GPa) = 0.02142534
#
# Stress axis : x y z
#
# Youngs Moduli (GPa) = 68.29900 68.29900 112.01926
#
# Poissons Ratio (x) = 0.41444 0.13018
# Poissons Ratio (y) = 0.41444 0.13018
# Poissons Ratio (z) = 0.07937 0.07937
#
# Static dielectric constant tensor:
#      x y z
#    x 1.634270 0.000000 0.000000 
#    y 0.000000 1.634270 0.000000 
#    z 0.000000 0.000000 1.697600 
# 
# From -- ./inp_files/1272.got.cif
#   From: 2010.05.17/outbox.cif.g08.bks.cpg/sg154_1_cif.got.tgz:1272.got - 2010.05.20 10:41:43.
