data_PCOD9576457
_publ_section_title
;
Structure prediction by ZEFSAII (Michael W. Deem and Ramdas Pophale) SiO2 
 PCOD9576457
Probable space group: P 32 2 1
;
_chemical_formula_sum "Si O2"
_cell_formula_units_Z 48
_cell_length_a 17.157502
_cell_length_b 17.157502
_cell_length_c 12.592201
_cell_angle_alpha 90.000000
_cell_angle_beta 90.000000
_cell_angle_gamma 120.000000
_cell_volume 3210.261390
_symmetry_space_group_name_H-M "P 32 2 1"
_symmetry_group_IT_number 154
_symmetry_cell_setting 'hexagonal'
loop_
_space_group_symop_operation_xyz
x,y,z
-y,x-y,2/3+z
-x+y,-x,1/3+z
x-y,-y,1/3-z
-x,-x+y,2/3-z
y,x,-z
loop_
_atom_site_type_symbol
_atom_site_label
_atom_site_fract_x
_atom_site_fract_y
_atom_site_fract_z
Si Si1 0.025881 0.598468 0.455343
Si Si2 0.153732 0.659792 0.105894
Si Si3 0.264777 0.514444 0.573226
Si Si4 0.501828 0.273543 0.871486
Si Si5 0.927332 0.399609 0.090720
Si Si6 0.462278 0.899696 0.132909
Si Si7 0.271934 0.634697 0.280517
Si Si8 0.359574 0.889627 0.332492
O O1 0.122955 0.683136 0.479823
O O2 0.037496 0.513143 0.485859
O O3 0.000000 0.592953 0.333334
O O4 0.940086 0.586253 0.519658
O O5 0.220822 0.667927 0.199910
O O6 0.128484 0.565402 0.048115
O O7 0.201164 0.734048 0.016520
O O8 0.162161 0.473443 0.539126
O O9 0.335957 0.511421 0.493046
O O10 0.312310 0.620344 0.604627
O O11 0.537521 0.248446 0.765432
O O12 0.457616 0.188694 0.950675
O O13 0.591873 0.347315 0.936808
O O14 0.012587 0.396429 0.042028
O O15 0.897825 0.438039 0.989640
O O16 0.378239 0.885739 0.207607
O O17 0.539765 0.000000 0.166667
#
# Coordination Sequence:
#
# PCOD9576457 Si02
#       8
#     6   6   6   6   6   6   6   6
#     4  11  21  31  42  61  87 117 151 188 238 270
#     4   9  18  29  40  57  87 110 146 191 222 257
#     4  11  18  27  46  64  83 114 151 187 219 259
#     4  11  20  30  45  63  85 117 155 195 228 272
#     4  10  20  30  43  63  87 112 149 187 228 263
#     4   9  17  30  43  59  84 110 144 186 223 261
#     4  11  17  27  42  63  79 110 156 182 211 258
#     4   8  17  31  43  59  82 112 142 191 232 257
#
# _framework density 14.952055
#
# number of rings (size 3 to 8) (size 9 to 14) (size 15 to 20)
#    0.000    2.000    6.250    1.500    0.000    0.000 
#    0.000    0.000    0.000    0.000    0.000    0.000 
#    0.000    0.000    0.000    2.250    0.000    0.375 
#
# Total GULP energy -267415.425997 kJ/mol
# GULP energy per Si atom -5571.154708 kJ/mol
# Density = 1.491802 g / cm^3
# Si number density = 14.952055 Si / 1000 Ang^3
#
#
#
# Elastic Constant Matrix: (Units=GPa)
#
#
# Indices 1 2 3 4 5 6 
#
# 1 53.0053 19.0867 2.0064 -2.1973 0.0001 0.0000
# 2 19.0867 53.0053 2.0064 2.1973 -0.0001 0.0000
# 3 2.0064 2.0064 28.0451 0.0000 0.0000 0.0000
# 4 -2.1973 2.1973 0.0000 17.8517 0.0000 -0.0001
# 5 0.0001 -0.0001 0.0000 0.0000 17.8517 -2.1973
# 6 0.0000 0.0000 0.0000 -0.0001 -2.1973 16.9593
#
#
#
# Elastic Compliance Matrix: (Units=1/GPa)
#
#
# Indices 1 2 3 4 5 6 
#
# 1 0.021943 -0.008017 -0.000996 0.003688 0.000000 0.000000
# 2 -0.008017 0.021943 -0.000996 -0.003688 0.000000 0.000000
# 3 -0.000996 -0.000996 0.035799 0.000000 0.000000 0.000000
# 4 0.003688 -0.003688 0.000000 0.056925 0.000000 0.000000
# 5 0.000000 0.000000 0.000000 0.000000 0.056925 0.007375
# 6 0.000000 0.000000 0.000000 0.000000 0.007375 0.059920
#
#
# Mechanical properties :
#
#
# Convention : Reuss Voigt Hill
#
# Bulk Modulus (GPa) = 16.75958 20.02828 18.39393
# Shear Modulus (GPa) = 17.04369 17.92965 17.48667
#
# Velocity S-wave (km/s) = 3.37989 3.46662 3.42353
# Velocity P-wave (km/s) = 5.14439 5.42654 5.28735
#
# Compressibility (1/GPa) = 0.05966738
#
# Stress axis : x y z
#
# Youngs Moduli (GPa) = 45.57185 45.57185 27.93343
#
# Poissons Ratio (x) = 0.36534 0.02783
# Poissons Ratio (y) = 0.36534 0.02783
# Poissons Ratio (z) = 0.04540 0.04540
#
# Static dielectric constant tensor:
#      x y z
#    x 1.517710 0.000000 0.000000 
#    y 0.000000 1.517710 0.000000 
#    z 0.000000 0.000000 1.579800 
# 
# From -- ./inp_files/1813.got.cif
#   From: 2010.05.17/outbox.cif.g08.bks.cpg/sg154_1_cif.got.tgz:1813.got - 2010.05.20 10:41:43.
