data_PCOD9576748
_publ_section_title
;
Structure prediction by ZEFSAII (Michael W. Deem and Ramdas Pophale) SiO2 
 PCOD9576748
Probable space group: P 32 2 1
;
_chemical_formula_sum "Si O2"
_cell_formula_units_Z 42
_cell_length_a 21.000000
_cell_length_b 21.000000
_cell_length_c 6.000000
_cell_angle_alpha 90.000000
_cell_angle_beta 90.000000
_cell_angle_gamma 120.000000
_cell_volume 2291.503218
_symmetry_space_group_name_H-M "P 32 2 1"
_symmetry_group_IT_number 154
_symmetry_cell_setting 'hexagonal'
loop_
_space_group_symop_operation_xyz
x,y,z
-y,x-y,2/3+z
-x+y,-x,1/3+z
x-y,-y,1/3-z
-x,-x+y,2/3-z
y,x,-z
loop_
_atom_site_type_symbol
_atom_site_label
_atom_site_fract_x
_atom_site_fract_y
_atom_site_fract_z
Si Si1 0.690848 0.777680 0.977231
Si Si2 0.817747 0.505698 0.955414
Si Si3 0.617745 0.816489 0.367744
Si Si4 0.641347 0.034605 0.416634
Si Si5 0.172589 0.461135 0.082294
Si Si6 0.202017 0.280003 0.075530
Si Si7 0.257316 0.622608 0.010304
O O1 0.612326 0.719417 0.861774
O O2 0.728596 0.855840 0.845353
O O3 0.742189 0.742189 0.000000
O O4 0.667231 0.798187 0.208330
O O5 0.892851 0.526232 0.075980
O O6 0.770643 0.525522 0.120217
O O7 0.837695 0.564289 0.757927
O O8 0.770802 0.426771 0.847698
O O9 0.564910 0.742612 0.502983
O O10 0.669035 0.882428 0.529468
O O11 0.728212 0.058322 0.432094
O O12 0.613325 0.000000 0.666667
O O13 0.614675 0.000000 0.166667
O O14 0.187558 0.543840 0.077651
O O15 0.211341 0.211341 0.000000
O O16 0.322150 0.614580 0.886529
#
# Coordination Sequence:
#
# PCOD9576748 Si02
#       7
#     6   6   6   6   6   6   6
#     4  10  22  38  61  88 117 164 213 254 309 383
#     4  11  20  35  56  84 119 154 196 257 316 381
#     4  10  18  36  58  82 121 155 193 253 312 366
#     4  11  22  35  61  91 126 162 197 252 323 386
#     4  10  21  36  56  86 113 156 201 263 313 370
#     4  10  20  31  57  94 120 151 195 256 317 366
#     4  12  23  35  59  87 116 151 210 265 323 379
#
# _framework density 18.328579999999999
#
# number of rings (size 3 to 8) (size 9 to 14) (size 15 to 20)
#    0.000    1.429    7.143    1.714    0.000    2.286 
#    0.000    0.000    3.143    0.857    0.000    5.000 
#    0.000    0.000    0.000    0.000    0.000    0.000 
#
# Total GULP energy -233802.352979 kJ/mol
# GULP energy per Si atom -5566.722690 kJ/mol
# Density = 1.828686 g / cm^3
# Si number density = 18.328580 Si / 1000 Ang^3
#
#
#
# Elastic Constant Matrix: (Units=GPa)
#
#
# Indices 1 2 3 4 5 6 
#
# 1 69.1775 25.9724 16.3266 -0.4109 0.0000 0.0000
# 2 25.9724 69.1775 16.3266 0.4109 0.0000 0.0000
# 3 16.3266 16.3266 70.5799 0.0000 0.0000 0.0000
# 4 -0.4109 0.4109 0.0000 15.9899 0.0000 0.0000
# 5 0.0000 0.0000 0.0000 0.0000 15.9899 -0.4109
# 6 0.0000 0.0000 0.0000 0.0000 -0.4109 21.6025
#
#
#
# Elastic Compliance Matrix: (Units=1/GPa)
#
#
# Indices 1 2 3 4 5 6 
#
# 1 0.017286 -0.005870 -0.002641 0.000595 0.000000 0.000000
# 2 -0.005870 0.017286 -0.002641 -0.000595 0.000000 0.000000
# 3 -0.002641 -0.002641 0.015390 0.000000 0.000000 0.000000
# 4 0.000595 -0.000595 0.000000 0.062570 0.000000 0.000000
# 5 0.000000 0.000000 0.000000 0.000000 0.062570 0.001190
# 6 0.000000 0.000000 0.000000 0.000000 0.001190 0.046313
#
#
# Mechanical properties :
#
#
# Convention : Reuss Voigt Hill
#
# Bulk Modulus (GPa) = 36.15460 36.24291 36.19875
# Shear Modulus (GPa) = 19.76753 20.73707 20.25230
#
# Velocity S-wave (km/s) = 3.28763 3.36729 3.32770
# Velocity P-wave (km/s) = 5.84636 5.91059 5.87856
#
# Compressibility (1/GPa) = 0.02765900
#
# Stress axis : x y z
#
# Youngs Moduli (GPa) = 57.84905 57.84905 64.97694
#
# Poissons Ratio (x) = 0.33960 0.17159
# Poissons Ratio (y) = 0.33960 0.17159
# Poissons Ratio (z) = 0.15277 0.15277
#
# Static dielectric constant tensor:
#      x y z
#    x 1.662110 0.000000 0.000000 
#    y 0.000000 1.662110 0.000000 
#    z 0.000000 0.000000 1.728920 
# 
# From -- ./inp_files/527.got.cif
#   From: 2010.05.17/outbox.ucp.g08.bks.cvg/sg154_1_cif.got.tgz:527.got - 2010.06.11 15:13:38.
