data_PCOD9576800
_publ_section_title
;
Structure prediction by ZEFSAII (Michael W. Deem and Ramdas Pophale) SiO2 
 PCOD9576800
Probable space group: R 3 2
;
_chemical_formula_sum "Si O2"
_cell_formula_units_Z 108
_cell_length_a 17.409815
_cell_length_b 17.409815
_cell_length_c 23.322600
_cell_angle_alpha 90.000000
_cell_angle_beta 90.000000
_cell_angle_gamma 120.000000
_cell_volume 6122.036408
_symmetry_space_group_name_H-M "R 3 2"
_symmetry_group_IT_number 155
_symmetry_cell_setting 'hexagonal'
loop_
_space_group_symop_operation_xyz
x,y,z
-y,x-y,z
-x+y,-x,z
x-y,-y,-z
-x,-x+y,-z
y,x,-z
2/3+x,1/3+y,1/3+z
2/3-y,1/3+x-y,1/3+z
2/3-x+y,1/3-x,1/3+z
2/3+x-y,1/3-y,1/3-z
2/3-x,1/3-x+y,1/3-z
2/3+y,1/3+x,1/3-z
1/3+x,2/3+y,2/3+z
1/3-y,2/3+x-y,2/3+z
1/3-x+y,2/3-x,2/3+z
1/3+x-y,2/3-y,2/3-z
1/3-x,2/3-x+y,2/3-z
1/3+y,2/3+x,2/3-z
loop_
_atom_site_type_symbol
_atom_site_label
_atom_site_fract_x
_atom_site_fract_y
_atom_site_fract_z
Si Si1 0.994340 0.516338 0.811151
Si Si2 0.865319 0.066322 0.251650
Si Si3 0.000000 0.490240 0.000000
Si Si4 0.333334 0.284462 0.166667
Si Si5 0.871767 0.396744 0.099448
Si Si6 0.585489 0.137144 0.915130
Si Si7 0.579678 0.447534 0.716937
O O1 0.909064 0.470159 0.853703
O O2 0.959862 0.468535 0.751070
O O3 0.028164 0.620753 0.807662
O O4 0.069001 0.505652 0.844017
O O5 0.790218 0.073972 0.215565
O O6 0.881243 0.096250 0.318058
O O7 0.962568 0.130490 0.225869
O O8 0.838689 0.963010 0.248216
O O9 0.061077 0.475470 0.954130
O O10 0.939409 0.512217 0.959466
O O11 0.515390 0.164425 0.937616
O O12 0.684637 0.214967 0.921709
#
# Coordination Sequence:
#
# PCOD9576800 Si02
#       7
#    18  18   9   9  18  18  18
#     4  10  22  37  54  78 123 157 188 231 311 348
#     4  11  21  37  61  84 113 146 211 242 292 343
#     4  10  18  34  50  80 116 150 178 230 302 334
#     4  10  22  40  56  82 114 162 200 242 286 350
#     4  10  21  38  56  81 111 154 186 255 288 352
#     4  11  21  33  53  84 120 149 190 231 287 360
#     4  12  20  34  57  89 113 158 193 241 282 362
#
# _framework density 17.641189000000001
#
# number of rings (size 3 to 8) (size 9 to 14) (size 15 to 20)
#    0.000    1.333    5.000    1.167    0.000    0.667 
#    6.000    1.667    0.000    0.000    0.000    0.000 
#    0.000    2.667    0.000    0.000    0.000    0.000 
#
# Total GULP energy -200783.312432 kJ/mol
# GULP energy per Si atom -5577.314234 kJ/mol
# Density = 1.760104 g / cm^3
# Si number density = 17.641189 Si / 1000 Ang^3
#
#
#
# Elastic Constant Matrix: (Units=GPa)
#
#
# Indices 1 2 3 4 5 6 
#
# 1 93.4191 42.2301 52.5899 4.4150 0.0000 0.0000
# 2 42.2301 93.4191 52.5899 -4.4150 0.0000 0.0000
# 3 52.5899 52.5899 102.0794 0.0000 0.0000 0.0000
# 4 4.4150 -4.4150 0.0000 22.4638 0.0000 0.0000
# 5 0.0000 0.0000 0.0000 0.0000 22.4638 4.4150
# 6 0.0000 0.0000 0.0000 0.0000 4.4150 25.5945
#
#
#
# Elastic Compliance Matrix: (Units=1/GPa)
#
#
# Indices 1 2 3 4 5 6 
#
# 1 0.016248 -0.003973 -0.006324 -0.003974 0.000000 0.000000
# 2 -0.003973 0.016248 -0.006324 0.003974 0.000000 0.000000
# 3 -0.006324 -0.006324 0.016313 0.000000 0.000000 0.000000
# 4 -0.003974 0.003974 0.000000 0.046078 0.000000 0.000000
# 5 0.000000 0.000000 0.000000 0.000000 0.046078 -0.007948
# 6 0.000000 0.000000 0.000000 0.000000 -0.007948 0.040442
#
#
# Mechanical properties :
#
#
# Convention : Reuss Voigt Hill
#
# Bulk Modulus (GPa) = 64.23869 64.85973 64.54921
# Shear Modulus (GPa) = 22.74392 23.53827 23.14110
#
# Velocity S-wave (km/s) = 3.59451 3.65674 3.62576
# Velocity P-wave (km/s) = 7.32942 7.39425 7.36191
#
# Compressibility (1/GPa) = 0.01556694
#
# Stress axis : x y z
#
# Youngs Moduli (GPa) = 61.54480 61.54480 61.30220
#
# Poissons Ratio (x) = 0.24450 0.38769
# Poissons Ratio (y) = 0.24450 0.38769
# Poissons Ratio (z) = 0.38922 0.38922
#
# Static dielectric constant tensor:
#      x y z
#    x 1.612590 0.000000 0.000000 
#    y 0.000000 1.612590 0.000000 
#    z 0.000000 0.000000 1.642690 
# 
# From -- ./inp_files/7501.got.cif
#   From: 2010.05.17/outbox.cif.g08.bks.cpg/sg155_4_cif.got.tgz:7501.got - 2010.05.20 10:44:35.
