data_PCOD9576584
_publ_section_title
;
Structure prediction by ZEFSAII (Michael W. Deem and Ramdas Pophale) SiO2 
 PCOD9576584
Probable space group: P 32 2 1
;
_chemical_formula_sum "Si O2"
_cell_formula_units_Z 42
_cell_length_a 8.709930
_cell_length_b 8.709930
_cell_length_c 28.836287
_cell_angle_alpha 90.000000
_cell_angle_beta 90.000000
_cell_angle_gamma 120.000000
_cell_volume 1894.520462
_symmetry_space_group_name_H-M "P 32 2 1"
_symmetry_group_IT_number 154
_symmetry_cell_setting 'hexagonal'
loop_
_space_group_symop_operation_xyz
x,y,z
-y,x-y,2/3+z
-x+y,-x,1/3+z
x-y,-y,1/3-z
-x,-x+y,2/3-z
y,x,-z
loop_
_atom_site_type_symbol
_atom_site_label
_atom_site_fract_x
_atom_site_fract_y
_atom_site_fract_z
Si Si1 0.500725 0.613926 0.198721
Si Si2 0.212294 0.566917 0.701955
Si Si3 0.786410 0.241432 0.389883
Si Si4 0.066598 0.585025 0.885287
Si Si5 0.083233 0.158964 0.702320
Si Si6 0.617498 0.877944 0.579009
Si Si7 0.246216 0.723070 0.448271
O O1 0.331780 0.497645 0.230768
O O2 0.597354 0.802284 0.225189
O O3 0.441967 0.641088 0.148112
O O4 0.610870 0.515373 0.195356
O O5 0.207536 0.664862 0.655598
O O6 0.180163 0.370787 0.690297
O O7 0.393830 0.679072 0.731215
O O8 0.067374 0.556940 0.739181
O O9 0.891129 0.457485 0.394067
O O10 0.874304 0.116845 0.386447
O O11 0.188534 0.493269 0.885073
O O12 0.000000 0.564472 0.833334
O O13 0.916057 0.143115 0.730843
O O14 0.983300 0.000000 0.666667
O O15 0.719528 0.061804 0.552859
#
# Coordination Sequence:
#
# PCOD9576584 Si02
#       7
#     6   6   6   6   6   6   6
#     4  11  24  44  74 101 142 186 242 290 360 444
#     4  11  26  44  74 101 144 190 235 302 368 433
#     4  11  26  48  71 103 145 189 242 295 372 436
#     4  10  21  46  70 101 139 185 236 291 362 433
#     4  11  27  43  69 108 146 181 240 302 364 439
#     4  10  27  44  71 103 144 188 239 305 363 442
#     4  12  25  46  73 103 141 189 240 296 369 429
#
# _framework density 22.169195999999999
#
# number of rings (size 3 to 8) (size 9 to 14) (size 15 to 20)
#    0.000    1.143    2.857    1.714   12.000    0.000 
#    0.000    0.714    0.000    0.000    0.000    0.000 
#    0.000    0.000    0.000    0.000    0.000    0.000 
#
# Total GULP energy -233975.067310 kJ/mol
# GULP energy per Si atom -5570.834936 kJ/mol
# Density = 2.211874 g / cm^3
# Si number density = 22.169196 Si / 1000 Ang^3
#
#
#
# Elastic Constant Matrix: (Units=GPa)
#
#
# Indices 1 2 3 4 5 6 
#
# 1 18.0575 37.9718 1.8560 -9.0173 -0.0044 0.0000
# 2 37.9718 18.0575 1.8560 9.0173 0.0044 0.0000
# 3 1.8560 1.8560 56.4001 0.0000 0.0000 0.0000
# 4 -9.0173 9.0173 0.0000 25.8918 0.0000 0.0044
# 5 -0.0044 0.0044 0.0000 0.0000 25.8918 -9.0173
# 6 0.0000 0.0000 0.0000 0.0044 -9.0173 -9.9571
#
#
#
# Elastic Compliance Matrix: (Units=1/GPa)
#
#
# Indices 1 2 3 4 5 6 
#
# 1 -0.010144 0.028031 -0.000589 -0.013295 -0.000006 0.000000
# 2 0.028031 -0.010144 -0.000589 0.013295 0.000006 0.000000
# 3 -0.000589 -0.000589 0.017769 0.000000 0.000000 0.000000
# 4 -0.013295 0.013295 0.000000 0.029362 0.000000 0.000013
# 5 -0.000006 0.000006 0.000000 0.000000 0.029362 -0.026590
# 6 0.000000 0.000000 0.000000 0.000013 -0.026590 -0.076350
#
#
# Mechanical properties :
#
#
# Convention : Reuss Voigt Hill
#
# Bulk Modulus (GPa) = 19.53568 19.54251 19.53910
# Shear Modulus (GPa) = -88.04294 11.75407 -38.14444
#
# Velocity S-wave (km/s) = -6.30875 2.30510 -4.15252
# Velocity P-wave (km/s) = 6.65100 3.98986 3.76277
#
# Compressibility (1/GPa) = 0.05118838
#
# Stress axis : x y z
#
# Youngs Moduli (GPa) = -98.57916 -98.57916 56.27712
#
# Poissons Ratio (x) = 2.76327 0.03313
# Poissons Ratio (y) = 2.76327 0.03313
# Poissons Ratio (z) = -0.05802 -0.05802
#
# Static dielectric constant tensor:
#      x y z
#    x 1.899720 0.000000 0.000000 
#    y 0.000000 1.899720 0.000000 
#    z 0.000000 0.000000 1.814500 
# 
# From -- ./inp_files/3775.got.cif
#   From: 2010.05.17/outbox.cif.g08.bks.cpg/sg154_2_cif.got.tgz:3775.got - 2010.05.20 10:41:43.
