data_PCOD9576740
_publ_section_title
;
Structure prediction by ZEFSAII (Michael W. Deem and Ramdas Pophale) SiO2 
 PCOD9576740
Probable space group: P 32 2 1
;
_chemical_formula_sum "Si O2"
_cell_formula_units_Z 42
_cell_length_a 8.839760
_cell_length_b 8.839760
_cell_length_c 26.550308
_cell_angle_alpha 90.000000
_cell_angle_beta 90.000000
_cell_angle_gamma 120.000000
_cell_volume 1796.723066
_symmetry_space_group_name_H-M "P 32 2 1"
_symmetry_group_IT_number 154
_symmetry_cell_setting 'hexagonal'
loop_
_space_group_symop_operation_xyz
x,y,z
-y,x-y,2/3+z
-x+y,-x,1/3+z
x-y,-y,1/3-z
-x,-x+y,2/3-z
y,x,-z
loop_
_atom_site_type_symbol
_atom_site_label
_atom_site_fract_x
_atom_site_fract_y
_atom_site_fract_z
Si Si1 0.000000 0.377590 0.333334
Si Si2 0.930017 0.234914 0.005802
Si Si3 0.602785 0.256246 0.993046
Si Si4 0.637153 0.028662 0.498810
Si Si5 0.128670 0.993213 0.445177
Si Si6 0.306780 0.642558 0.790532
Si Si7 0.000000 0.657498 0.833334
Si Si8 0.220306 0.142528 0.741865
O O1 0.831063 0.396600 0.335379
O O2 0.984641 0.258396 0.380946
O O3 0.001281 0.181073 0.053681
O O4 0.089808 0.422396 0.989828
O O5 0.766389 0.258707 0.019375
O O6 0.853258 0.079291 0.965074
O O7 0.638003 0.261484 0.932594
O O8 0.584877 0.159315 0.523967
O O9 0.712907 0.087383 0.442301
O O10 0.803722 0.066267 0.532704
O O11 0.485722 0.828514 0.492584
O O12 0.289912 0.162328 0.470680
O O13 0.969855 0.031154 0.445702
O O14 0.110303 0.604995 0.796224
#
# Coordination Sequence:
#
# PCOD9576740 Si02
#       8
#     3   6   6   6   6   6   3   6
#     4  12  28  44  76 108 144 196 250 306 382 448
#     4  12  27  49  75 107 150 197 249 310 378 459
#     4  12  29  49  73 110 153 197 253 313 383 456
#     4  12  27  49  75 107 150 197 249 310 378 459
#     4  12  25  48  78 107 147 195 249 311 382 450
#     4  12  29  49  73 110 153 197 253 313 383 456
#     4  12  28  44  76 108 144 196 250 306 382 448
#     4  12  25  48  78 107 147 195 249 311 382 450
#
# _framework density 23.375889000000001
#
# number of rings (size 3 to 8) (size 9 to 14) (size 15 to 20)
#    0.000    0.000    5.714    2.571    8.000    0.000 
#    0.000    0.000    0.000    0.000    0.000    0.000 
#    0.000    0.000    0.000    0.000    0.000    0.000 
#
# Total GULP energy -235139.421648 kJ/mol
# GULP energy per Si atom -5598.557658 kJ/mol
# Density = 2.332268 g / cm^3
# Si number density = 23.375889 Si / 1000 Ang^3
#
#
#
# Elastic Constant Matrix: (Units=GPa)
#
#
# Indices 1 2 3 4 5 6 
#
# 1 90.0236 2.5172 -4.8573 4.1659 0.0001 0.0000
# 2 2.5172 90.0236 -4.8573 -4.1659 -0.0001 0.0000
# 3 -4.8573 -4.8573 60.0555 0.0000 0.0000 0.0000
# 4 4.1659 -4.1659 0.0000 30.2880 0.0000 -0.0001
# 5 0.0001 -0.0001 0.0000 0.0000 30.2880 4.1659
# 6 0.0000 0.0000 0.0000 -0.0001 4.1659 43.7532
#
#
#
# Elastic Compliance Matrix: (Units=1/GPa)
#
#
# Indices 1 2 3 4 5 6 
#
# 1 0.011239 -0.000340 0.000881 -0.001593 0.000000 0.000000
# 2 -0.000340 0.011239 0.000881 0.001593 0.000000 0.000000
# 3 0.000881 0.000881 0.016794 0.000000 0.000000 0.000000
# 4 -0.001593 0.001593 0.000000 0.033454 0.000000 0.000000
# 5 0.000000 0.000000 0.000000 0.000000 0.033454 -0.003185
# 6 0.000000 0.000000 0.000000 0.000000 -0.003185 0.023159
#
#
# Mechanical properties :
#
#
# Convention : Reuss Voigt Hill
#
# Bulk Modulus (GPa) = 23.74342 25.07865 24.41103
# Shear Modulus (GPa) = 35.57874 37.35252 36.46563
#
# Velocity S-wave (km/s) = 3.90555 4.00172 3.95393
# Velocity P-wave (km/s) = 5.52422 5.66599 5.59555
#
# Compressibility (1/GPa) = 0.04211694
#
# Stress axis : x y z
#
# Youngs Moduli (GPa) = 88.97608 88.97608 59.54560
#
# Poissons Ratio (x) = 0.03029 -0.05249
# Poissons Ratio (y) = 0.03029 -0.05249
# Poissons Ratio (z) = -0.07843 -0.07843
#
# Static dielectric constant tensor:
#      x y z
#    x 1.891500 0.000000 0.000000 
#    y 0.000000 1.891500 0.000000 
#    z 0.000000 0.000000 1.920920 
# 
# From -- ./inp_files/3826.got.cif
#   From: 2010.05.17/outbox.cif.g08.bks.cpg/sg154_2_cif.got.tgz:3826.got - 2010.05.20 10:41:43.
