data_PCOD9576550
_publ_section_title
;
Structure prediction by ZEFSAII (Michael W. Deem and Ramdas Pophale) SiO2 
 PCOD9576550
Probable space group: P 32 2 1
;
_chemical_formula_sum "Si O2"
_cell_formula_units_Z 24
_cell_length_a 10.863565
_cell_length_b 10.863565
_cell_length_c 10.015130
_cell_angle_alpha 90.000000
_cell_angle_beta 90.000000
_cell_angle_gamma 120.000000
_cell_volume 1023.603959
_symmetry_space_group_name_H-M "P 32 2 1"
_symmetry_group_IT_number 154
_symmetry_cell_setting 'hexagonal'
loop_
_space_group_symop_operation_xyz
x,y,z
-y,x-y,2/3+z
-x+y,-x,1/3+z
x-y,-y,1/3-z
-x,-x+y,2/3-z
y,x,-z
loop_
_atom_site_type_symbol
_atom_site_label
_atom_site_fract_x
_atom_site_fract_y
_atom_site_fract_z
Si Si1 0.831668 0.405140 0.330835
Si Si2 0.624228 0.838109 0.862901
Si Si3 0.987296 0.355085 0.990412
Si Si4 0.553684 0.867259 0.402451
O O1 0.799040 0.245103 0.334187
O O2 0.802658 0.477739 0.209424
O O3 0.794879 0.467644 0.461628
O O4 0.000000 0.487835 0.333334
O O5 0.681832 0.759079 0.764859
O O6 0.715452 0.005145 0.887754
O O7 0.817481 0.254192 0.013229
O O8 0.000000 0.326271 0.833334
O O9 0.052040 0.525999 0.008010
#
# Coordination Sequence:
#
# PCOD9576550 Si02
#       4
#     6   6   6   6
#     4   9  19  36  60  90 125 174 220 276 340 402
#     4  10  21  38  65  90 135 172 231 277 343 407
#     4  11  23  40  69  99 138 176 230 282 345 416
#     4  10  23  39  64 100 131 179 224 282 343 413
#
# _framework density 23.446567999999999
#
# number of rings (size 3 to 8) (size 9 to 14) (size 15 to 20)
#    0.000    2.000    2.500    0.000    7.000    0.000 
#    9.000    0.000    5.500    0.000    0.000    0.000 
#    0.000    0.000    0.000    0.000    0.000    0.000 
#
# Total GULP energy -133626.660952 kJ/mol
# GULP energy per Si atom -5567.777540 kJ/mol
# Density = 2.339320 g / cm^3
# Si number density = 23.446568 Si / 1000 Ang^3
#
#
#
# Elastic Constant Matrix: (Units=GPa)
#
#
# Indices 1 2 3 4 5 6 
#
# 1 144.0407 24.5757 18.1688 -28.7344 0.0000 0.0000
# 2 24.5757 144.0407 18.1688 28.7344 0.0000 0.0000
# 3 18.1688 18.1688 71.6776 0.0000 0.0000 0.0000
# 4 -28.7344 28.7344 0.0000 64.9208 0.0000 0.0000
# 5 0.0000 0.0000 0.0000 0.0000 64.9208 -28.7344
# 6 0.0000 0.0000 0.0000 0.0000 -28.7344 59.7325
#
#
#
# Elastic Compliance Matrix: (Units=1/GPa)
#
#
# Indices 1 2 3 4 5 6 
#
# 1 0.008454 -0.002181 -0.001590 0.004707 0.000000 0.000000
# 2 -0.002181 0.008454 -0.001590 -0.004707 0.000000 0.000000
# 3 -0.001590 -0.001590 0.014758 0.000000 0.000000 0.000000
# 4 0.004707 -0.004707 0.000000 0.019570 0.000000 0.000000
# 5 0.000000 0.000000 0.000000 0.000000 0.019570 0.009414
# 6 0.000000 0.000000 0.000000 0.000000 0.009414 0.021270
#
#
# Mechanical properties :
#
#
# Convention : Reuss Voigt Hill
#
# Bulk Modulus (GPa) = 47.74750 53.50950 50.62850
# Shear Modulus (GPa) = 45.54574 57.83789 51.69181
#
# Velocity S-wave (km/s) = 4.41220 4.97207 4.70048
# Velocity P-wave (km/s) = 6.80920 7.47218 7.14838
#
# Compressibility (1/GPa) = 0.02094350
#
# Stress axis : x y z
#
# Youngs Moduli (GPa) = 118.28492 118.28492 67.76214
#
# Poissons Ratio (x) = 0.25796 0.10775
# Poissons Ratio (y) = 0.25796 0.10775
# Poissons Ratio (z) = 0.18809 0.18809
#
# Static dielectric constant tensor:
#      x y z
#    x 2.157610 0.000000 0.000000 
#    y 0.000000 2.157610 0.000000 
#    z 0.000000 0.000000 1.269900 
# 
# From -- ./inp_files/1563.got.cif
#   From: 2010.05.17/outbox.cif.g08.bks.cpg/sg154_1_cif.got.tgz:1563.got - 2010.05.20 10:41:43.
