data_PCOD9576186
_publ_section_title
;
Structure prediction by ZEFSAII (Michael W. Deem and Ramdas Pophale) SiO2 
 PCOD9576186
Probable space group: P 31 2 1
;
_chemical_formula_sum "Si O2"
_cell_formula_units_Z 36
_cell_length_a 11.221645
_cell_length_b 11.221645
_cell_length_c 13.983147
_cell_angle_alpha 90.000000
_cell_angle_beta 90.000000
_cell_angle_gamma 120.000000
_cell_volume 1524.925427
_symmetry_space_group_name_H-M "P 31 2 1"
_symmetry_group_IT_number 152
_symmetry_cell_setting 'hexagonal'
loop_
_space_group_symop_operation_xyz
x,y,z
-y,x-y,1/3+z
-x+y,-x,2/3+z
x-y,-y,2/3-z
-x,-x+y,1/3-z
y,x,-z
loop_
_atom_site_type_symbol
_atom_site_label
_atom_site_fract_x
_atom_site_fract_y
_atom_site_fract_z
Si Si1 0.205623 0.000000 0.333334
Si Si2 0.969510 0.331157 0.834529
Si Si3 0.408586 0.698992 0.948648
Si Si4 0.145924 0.228030 0.347935
Si Si5 0.301613 0.790167 0.773099
Si Si6 0.007525 0.551449 0.978844
Si Si7 0.794337 0.794337 0.500000
O O1 0.315081 0.061733 0.246870
O O2 0.068050 0.883465 0.282793
O O3 0.839932 0.313659 0.773711
O O4 0.031162 0.473335 0.891191
O O5 0.920528 0.209854 0.913114
O O6 0.319633 0.717776 0.865918
O O7 0.319023 0.571871 0.019370
O O8 0.473057 0.843618 0.004908
O O9 0.287447 0.352388 0.307151
O O10 0.046368 0.156726 0.258509
O O11 0.222961 0.871893 0.798792
O O12 0.449042 0.913347 0.736255
#
# Coordination Sequence:
#
# PCOD9576186 Si02
#       7
#     3   6   6   6   6   6   3
#     4  12  30  46  78 104 156 200 248 294 368 458
#     4  12  26  48  73 109 143 190 248 308 368 431
#     4  12  23  42  74 106 140 190 238 307 374 432
#     4  12  27  50  75 108 148 205 247 299 372 451
#     4  12  23  41  73 110 142 185 240 304 370 443
#     4  12  22  45  78 106 142 189 247 302 376 435
#     4  12  26  48  72 108 150 196 248 306 366 452
#
# _framework density 23.607713
#
# number of rings (size 3 to 8) (size 9 to 14) (size 15 to 20)
#    0.000    0.000    8.333    1.500    2.333    4.000 
#    0.000    0.000    0.000    0.000    0.000    0.000 
#    0.000    0.000    0.000    0.000    0.000    0.000 
#
# Total GULP energy -201535.093000 kJ/mol
# GULP energy per Si atom -5598.197028 kJ/mol
# Density = 2.355398 g / cm^3
# Si number density = 23.607713 Si / 1000 Ang^3
#
#
#
# Elastic Constant Matrix: (Units=GPa)
#
#
# Indices 1 2 3 4 5 6 
#
# 1 57.1517 12.5913 28.8012 -1.9478 0.0000 0.0000
# 2 12.5913 57.1517 28.8012 1.9478 0.0000 0.0000
# 3 28.8012 28.8012 120.4176 0.0000 0.0000 0.0000
# 4 -1.9478 1.9478 0.0000 39.3261 0.0000 0.0000
# 5 0.0000 0.0000 0.0000 0.0000 39.3261 -1.9478
# 6 0.0000 0.0000 0.0000 0.0000 -1.9478 22.2802
#
#
#
# Elastic Compliance Matrix: (Units=1/GPa)
#
#
# Indices 1 2 3 4 5 6 
#
# 1 0.020204 -0.002335 -0.004274 0.001116 0.000000 0.000000
# 2 -0.002335 0.020204 -0.004274 -0.001116 0.000000 0.000000
# 3 -0.004274 -0.004274 0.010349 0.000000 0.000000 0.000000
# 4 0.001116 -0.001116 0.000000 0.025539 0.000000 0.000000
# 5 0.000000 0.000000 0.000000 0.000000 0.025539 0.002233
# 6 0.000000 0.000000 0.000000 0.000000 0.002233 0.045078
#
#
# Mechanical properties :
#
#
# Convention : Reuss Voigt Hill
#
# Bulk Modulus (GPa) = 34.49426 41.67870 38.08648
# Shear Modulus (GPa) = 28.03620 31.15498 29.59559
#
# Velocity S-wave (km/s) = 3.44988 3.63670 3.54452
# Velocity P-wave (km/s) = 5.52377 5.94367 5.73756
#
# Compressibility (1/GPa) = 0.02899033
#
# Stress axis : x y z
#
# Youngs Moduli (GPa) = 49.49623 49.49623 96.62996
#
# Poissons Ratio (x) = 0.11560 0.41296
# Poissons Ratio (y) = 0.11560 0.41296
# Poissons Ratio (z) = 0.21153 0.21153
#
# Static dielectric constant tensor:
#      x y z
#    x 1.906030 0.000000 0.000000 
#    y 0.000000 1.906030 0.000000 
#    z 0.000000 0.000000 1.900520 
# 
# From -- ./inp_files/2064.got.cif
#   From: 2010.05.17/outbox.cif.g08.bks.cpg/sg152_2_cif.got.tgz:2064.got - 2010.05.20 10:36:06.
