data_PCOD9576589
_publ_section_title
;
Structure prediction by ZEFSAII (Michael W. Deem and Ramdas Pophale) SiO2 
 PCOD9576589
Probable space group: P 32 2 1
;
_chemical_formula_sum "Si O2"
_cell_formula_units_Z 30
_cell_length_a 8.594662
_cell_length_b 8.594662
_cell_length_c 22.943390
_cell_angle_alpha 90.000000
_cell_angle_beta 90.000000
_cell_angle_gamma 120.000000
_cell_volume 1467.728824
_symmetry_space_group_name_H-M "P 32 2 1"
_symmetry_group_IT_number 154
_symmetry_cell_setting 'hexagonal'
loop_
_space_group_symop_operation_xyz
x,y,z
-y,x-y,2/3+z
-x+y,-x,1/3+z
x-y,-y,1/3-z
-x,-x+y,2/3-z
y,x,-z
loop_
_atom_site_type_symbol
_atom_site_label
_atom_site_fract_x
_atom_site_fract_y
_atom_site_fract_z
Si Si1 0.167349 0.966421 0.396530
Si Si2 0.630003 0.779592 0.607241
Si Si3 0.473228 0.131966 0.493183
Si Si4 0.000000 0.164513 0.333334
Si Si5 0.000000 0.476533 0.833334
Si Si6 0.703305 0.516909 0.083581
O O1 0.309388 0.038721 0.447629
O O2 0.096846 0.102570 0.380251
O O3 0.252297 0.942133 0.336832
O O4 0.985404 0.778207 0.408422
O O5 0.616258 0.646030 0.556488
O O6 0.435412 0.760848 0.610589
O O7 0.502903 0.327996 0.508282
O O8 0.655266 0.168422 0.460904
O O9 0.415830 0.997344 0.547143
O O10 0.855534 0.195231 0.366928
#
# Coordination Sequence:
#
# PCOD9576589 Si02
#       6
#     6   6   6   3   3   6
#     4  10  22  40  61  85 116 156 195 238 296 355
#     4   9  21  41  61  84 116 156 196 241 294 347
#     4  11  24  39  60  89 120 156 197 242 296 353
#     4  10  22  38  60  86 114 152 194 240 292 348
#     4  10  22  40  62  88 118 156 198 240 296 356
#     4  11  23  38  59  88 118 152 196 245 292 346
#
# _framework density 20.439743
#
# number of rings (size 3 to 8) (size 9 to 14) (size 15 to 20)
#    0.000    2.000    0.000    3.600    0.000   15.200 
#    0.000    0.000    0.000    0.000    0.000    0.000 
#    0.000    0.000    0.000    0.000    0.000    0.000 
#
# Total GULP energy -167726.457452 kJ/mol
# GULP energy per Si atom -5590.881915 kJ/mol
# Density = 2.039322 g / cm^3
# Si number density = 20.439743 Si / 1000 Ang^3
#
#
#
# Elastic Constant Matrix: (Units=GPa)
#
#
# Indices 1 2 3 4 5 6 
#
# 1 42.3832 -4.5330 12.3926 6.7071 0.0001 0.0000
# 2 -4.5330 42.3832 12.3926 -6.7071 -0.0001 0.0000
# 3 12.3926 12.3926 38.3824 0.0000 0.0000 0.0000
# 4 6.7071 -6.7071 0.0000 28.1343 0.0000 -0.0001
# 5 0.0001 -0.0001 0.0000 0.0000 28.1343 6.7071
# 6 0.0000 0.0000 0.0000 -0.0001 6.7071 23.4581
#
#
#
# Elastic Compliance Matrix: (Units=1/GPa)
#
#
# Indices 1 2 3 4 5 6 
#
# 1 0.028188 0.005315 -0.010817 -0.005453 0.000000 0.000000
# 2 0.005315 0.028188 -0.010817 0.005453 0.000000 0.000000
# 3 -0.010817 -0.010817 0.033039 0.000000 0.000000 0.000000
# 4 -0.005453 0.005453 0.000000 0.038144 0.000000 0.000000
# 5 0.000000 0.000000 0.000000 0.000000 0.038144 -0.010906
# 6 0.000000 0.000000 0.000000 0.000000 -0.010906 0.045747
#
#
# Mechanical properties :
#
#
# Convention : Reuss Voigt Hill
#
# Bulk Modulus (GPa) = 17.61299 18.18370 17.89834
# Shear Modulus (GPa) = 19.01030 22.80513 20.90771
#
# Velocity S-wave (km/s) = 3.05301 3.34387 3.20174
# Velocity P-wave (km/s) = 4.58950 4.88100 4.73749
#
# Compressibility (1/GPa) = 0.05677628
#
# Stress axis : x y z
#
# Youngs Moduli (GPa) = 35.47550 35.47550 30.26744
#
# Poissons Ratio (x) = -0.18854 0.32741
# Poissons Ratio (y) = -0.18854 0.32741
# Poissons Ratio (z) = 0.38375 0.38375
#
# Static dielectric constant tensor:
#      x y z
#    x 1.723900 0.000000 0.000000 
#    y 0.000000 1.723900 0.000000 
#    z 0.000000 0.000000 1.760980 
# 
# From -- ./inp_files/3093.got.cif
#   From: 2010.05.17/outbox.cif.g08.bks.cpg/sg154_2_cif.got.tgz:3093.got - 2010.05.20 10:41:43.
