data_PCOD9576315
_publ_section_title
;
Structure prediction by ZEFSAII (Michael W. Deem and Ramdas Pophale) SiO2 
 PCOD9576315
Probable space group: P 32 1 2
;
_chemical_formula_sum "Si O2"
_cell_formula_units_Z 18
_cell_length_a 7.669947
_cell_length_b 7.669947
_cell_length_c 12.434560
_cell_angle_alpha 90.000000
_cell_angle_beta 90.000000
_cell_angle_gamma 120.000000
_cell_volume 633.498776
_symmetry_space_group_name_H-M "P 32 1 2"
_symmetry_group_IT_number 153
_symmetry_cell_setting 'hexagonal'
loop_
_space_group_symop_operation_xyz
x,y,z
-y,x-y,2/3+z
-x+y,-x,1/3+z
-y,-x,1/3-z
-x+y,y,2/3-z
x,x-y,-z
loop_
_atom_site_type_symbol
_atom_site_label
_atom_site_fract_x
_atom_site_fract_y
_atom_site_fract_z
Si Si1 0.125577 0.657556 0.338147
Si Si2 0.796954 0.601208 0.497535
Si Si3 0.273165 0.091268 0.623365
O O1 0.362638 0.725276 0.333334
O O2 0.028022 0.691724 0.448597
O O3 0.995578 0.688203 0.246289
O O4 0.021898 0.416822 0.318901
O O5 0.723777 0.361889 0.500000
O O6 0.744202 0.640719 0.616961
O O7 0.283076 0.141538 0.500000
O O8 0.050736 0.949265 0.666667
#
# Coordination Sequence:
#
# PCOD9576315 Si02
#       3
#     6   6   6
#     4   9  18  35  67 103 141 182 243 324 376 470
#     4   9  18  36  67 102 142 193 248 302 396 475
#     4  10  21  39  65  94 138 185 246 308 376 476
#
# _framework density 28.413633999999998
#
# number of rings (size 3 to 8) (size 9 to 14) (size 15 to 20)
#    0.000    2.667    0.000    1.000    0.000    4.000 
#    6.000    0.000   58.667    0.000    0.000    0.000 
#    0.000    0.000    0.000    0.000    0.000    0.000 
#
# Total GULP energy -100377.860825 kJ/mol
# GULP energy per Si atom -5576.547824 kJ/mol
# Density = 2.834896 g / cm^3
# Si number density = 28.413634 Si / 1000 Ang^3
#
#
#
# Elastic Constant Matrix: (Units=GPa)
#
#
# Indices 1 2 3 4 5 6 
#
# 1 122.6270 104.6513 64.9244 0.0005 -8.3301 0.0000
# 2 104.6513 122.6270 64.9244 -0.0005 8.3301 0.0000
# 3 64.9244 64.9244 334.2203 0.0000 0.0000 0.0000
# 4 0.0005 -0.0005 0.0000 20.9660 0.0000 8.3301
# 5 -8.3301 8.3301 0.0000 0.0000 20.9660 0.0005
# 6 0.0000 0.0000 0.0000 8.3301 0.0005 8.9878
#
#
#
# Elastic Compliance Matrix: (Units=1/GPa)
#
#
# Indices 1 2 3 4 5 6 
#
# 1 0.046503 -0.041553 -0.000961 -0.000002 0.034986 0.000000
# 2 -0.041553 0.046503 -0.000961 0.000002 -0.034986 0.000000
# 3 -0.000961 -0.000961 0.003366 0.000000 0.000000 0.000000
# 4 -0.000002 0.000002 0.000000 0.075497 0.000000 -0.069972
# 5 0.034986 -0.034986 0.000000 0.000000 0.075497 -0.000004
# 6 0.000000 0.000000 0.000000 -0.069972 -0.000004 0.176112
#
#
# Mechanical properties :
#
#
# Convention : Reuss Voigt Hill
#
# Bulk Modulus (GPa) = 106.17676 116.49717 111.33696
# Shear Modulus (GPa) = 9.73579 33.18225 21.45902
#
# Velocity S-wave (km/s) = 1.85308 3.42106 2.75114
# Velocity P-wave (km/s) = 6.48289 7.52956 7.02575
#
# Compressibility (1/GPa) = 0.00941826
#
# Stress axis : x y z
#
# Youngs Moduli (GPa) = 21.50415 21.50415 297.12772
#
# Poissons Ratio (x) = 0.89357 0.28566
# Poissons Ratio (y) = 0.89357 0.28566
# Poissons Ratio (z) = 0.02067 0.02067
#
# Static dielectric constant tensor:
#      x y z
#    x 2.357680 0.000000 0.000000 
#    y 0.000000 2.357680 0.000000 
#    z 0.000000 0.000000 2.265830 
# 
# From -- ./inp_files/2173.got.cif
#   From: 2010.05.17/outbox.cif.g08.bks.cpg/sg153_2_cif.got.tgz:2173.got - 2010.05.20 10:38:56.
