data_PCOD9576931
_publ_section_title
;
Structure prediction by ZEFSAII (Michael W. Deem and Ramdas Pophale) SiO2 
 PCOD9576931
Probable space group: R 3 2
;
_chemical_formula_sum "Si O2"
_cell_formula_units_Z 63
_cell_length_a 14.546006
_cell_length_b 14.546006
_cell_length_c 17.210230
_cell_angle_alpha 90.000000
_cell_angle_beta 90.000000
_cell_angle_gamma 120.000000
_cell_volume 3153.587103
_symmetry_space_group_name_H-M "R 3 2"
_symmetry_group_IT_number 155
_symmetry_cell_setting 'hexagonal'
loop_
_space_group_symop_operation_xyz
x,y,z
-y,x-y,z
-x+y,-x,z
x-y,-y,-z
-x,-x+y,-z
y,x,-z
2/3+x,1/3+y,1/3+z
2/3-y,1/3+x-y,1/3+z
2/3-x+y,1/3-x,1/3+z
2/3+x-y,1/3-y,1/3-z
2/3-x,1/3-x+y,1/3-z
2/3+y,1/3+x,1/3-z
1/3+x,2/3+y,2/3+z
1/3-y,2/3+x-y,2/3+z
1/3-x+y,2/3-x,2/3+z
1/3+x-y,2/3-y,2/3-z
1/3-x,2/3-x+y,2/3-z
1/3+y,2/3+x,2/3-z
loop_
_atom_site_type_symbol
_atom_site_label
_atom_site_fract_x
_atom_site_fract_y
_atom_site_fract_z
Si Si1 0.879055 0.120329 0.972886
Si Si2 0.196295 0.581769 0.849109
Si Si3 0.666667 0.452049 0.833334
Si Si4 0.551615 0.677376 0.002033
O O1 0.896764 0.128994 0.879096
O O2 0.840452 0.198622 0.006626
O O3 0.000000 0.161671 0.000000
O O4 0.804832 0.000000 0.000000
O O5 0.290757 0.553802 0.835839
O O6 0.163096 0.538685 0.936211
O O7 0.566526 0.333334 0.833334
O O8 0.665252 0.505179 0.912758
O O9 0.617691 0.617691 0.000000
#
# Coordination Sequence:
#
# PCOD9576931 Si02
#       4
#    18  18   9  18
#     4  11  20  39  62  90 128 168 206 259 323 378
#     4  10  20  38  65  82 118 170 215 239 320 393
#     4  10  22  44  68  80 128 180 210 240 336 396
#     4  11  23  37  63  98 124 158 218 270 310 373
#
# _framework density 19.977250999999999
#
# number of rings (size 3 to 8) (size 9 to 14) (size 15 to 20)
#    0.857    0.571    2.857    3.714    0.000    3.429 
#    0.000    8.571    0.000    0.000    0.000    0.000 
#    0.000    0.000    0.000    0.000    0.000    0.000 
#
# Total GULP energy -116936.473157 kJ/mol
# GULP energy per Si atom -5568.403484 kJ/mol
# Density = 1.993178 g / cm^3
# Si number density = 19.977251 Si / 1000 Ang^3
#
#
#
# Elastic Constant Matrix: (Units=GPa)
#
#
# Indices 1 2 3 4 5 6 
#
# 1 55.2485 23.5903 29.6586 4.4447 -0.0002 0.0000
# 2 23.5903 55.2485 29.6586 -4.4447 0.0002 0.0000
# 3 29.6586 29.6586 146.1885 0.0000 0.0000 0.0000
# 4 4.4447 -4.4447 0.0000 28.9556 0.0000 0.0002
# 5 -0.0002 0.0002 0.0000 0.0000 28.9556 4.4447
# 6 0.0000 0.0000 0.0000 0.0002 4.4447 15.8291
#
#
#
# Elastic Compliance Matrix: (Units=1/GPa)
#
#
# Indices 1 2 3 4 5 6 
#
# 1 0.023990 -0.009021 -0.003037 -0.005067 0.000000 0.000000
# 2 -0.009021 0.023990 -0.003037 0.005067 0.000000 0.000000
# 3 -0.003037 -0.003037 0.008073 0.000000 0.000000 0.000000
# 4 -0.005067 0.005067 0.000000 0.036091 0.000000 0.000000
# 5 0.000000 0.000000 0.000000 0.000000 0.036091 -0.010134
# 6 0.000000 0.000000 0.000000 0.000000 -0.010134 0.066020
#
#
# Mechanical properties :
#
#
# Convention : Reuss Voigt Hill
#
# Bulk Modulus (GPa) = 38.66499 46.94451 42.80475
# Shear Modulus (GPa) = 21.45328 26.33326 23.89327
#
# Velocity S-wave (km/s) = 3.28057 3.63459 3.46211
# Velocity P-wave (km/s) = 5.80914 6.41589 6.12004
#
# Compressibility (1/GPa) = 0.02586319
#
# Stress axis : x y z
#
# Youngs Moduli (GPa) = 41.68469 41.68469 123.87370
#
# Poissons Ratio (x) = 0.37602 0.37619
# Poissons Ratio (y) = 0.37602 0.37619
# Poissons Ratio (z) = 0.12659 0.12659
#
# Static dielectric constant tensor:
#      x y z
#    x 1.705420 0.000000 0.000000 
#    y 0.000000 1.705420 0.000000 
#    z 0.000000 0.000000 1.725350 
# 
# From -- ./inp_files/5787.got.cif
#   From: 2010.05.17/outbox.cif.g08.bks.cpg/sg155_3_cif.got.tgz:5787.got - 2010.05.20 10:44:35.
