data_PCOD9576017
_publ_section_title
;
Structure prediction by ZEFSAII (Michael W. Deem and Ramdas Pophale) SiO2 
 PCOD9576017
Probable space group: P 31 2 1
;
_chemical_formula_sum "Si O2"
_cell_formula_units_Z 42
_cell_length_a 8.235181
_cell_length_b 8.235181
_cell_length_c 27.648345
_cell_angle_alpha 90.000000
_cell_angle_beta 90.000000
_cell_angle_gamma 120.000000
_cell_volume 1623.850598
_symmetry_space_group_name_H-M "P 31 2 1"
_symmetry_group_IT_number 152
_symmetry_cell_setting 'hexagonal'
loop_
_space_group_symop_operation_xyz
x,y,z
-y,x-y,1/3+z
-x+y,-x,2/3+z
x-y,-y,2/3-z
-x,-x+y,1/3-z
y,x,-z
loop_
_atom_site_type_symbol
_atom_site_label
_atom_site_fract_x
_atom_site_fract_y
_atom_site_fract_z
Si Si1 0.040818 0.301007 0.972460
Si Si2 0.162567 0.851354 0.476133
Si Si3 0.547491 0.518528 0.444421
Si Si4 0.384532 0.941414 0.389753
Si Si5 0.235271 0.198618 0.905646
Si Si6 0.330025 0.564972 0.366247
Si Si7 0.562896 0.421448 0.782032
O O1 0.836778 0.229422 0.995034
O O2 0.051637 0.412101 0.922901
O O3 0.104294 0.158607 0.952440
O O4 0.178224 0.476721 0.005333
O O5 0.264477 0.981900 0.429669
O O6 0.069189 0.881008 0.524326
O O7 0.994677 0.654098 0.458528
O O8 0.326901 0.826476 0.501099
O O9 0.488133 0.488133 0.500000
O O10 0.377447 0.465497 0.409000
O O11 0.662410 0.415168 0.432082
O O12 0.677641 0.743937 0.436846
O O13 0.277646 0.714925 0.385980
O O14 0.393560 0.000000 0.333334
O O15 0.589067 0.997242 0.413463
#
# Coordination Sequence:
#
# PCOD9576017 Si02
#       7
#     6   6   6   6   6   6   6
#     4  11  23  41  64  96 125 166 213 274 327 383
#     4  11  20  39  63  97 122 172 219 267 320 400
#     4  11  22  41  65  91 124 174 213 261 328 397
#     4  11  20  38  64  95 124 180 221 259 324 416
#     4  10  22  40  67  92 130 171 216 268 330 393
#     4  11  23  40  67  91 133 166 216 267 335 391
#     4  11  22  38  66  91 128 161 221 266 322 398
#
# _framework density 25.864446999999998
#
# number of rings (size 3 to 8) (size 9 to 14) (size 15 to 20)
#    0.000    1.143    5.714    1.714    0.000    0.000 
#    0.000    3.571    0.000    0.000    0.000    0.000 
#    0.000    0.000    0.000    0.000    0.000    0.000 
#
# Total GULP energy -234612.631702 kJ/mol
# GULP energy per Si atom -5586.015041 kJ/mol
# Density = 2.580558 g / cm^3
# Si number density = 25.864447 Si / 1000 Ang^3
#
#
#
# Elastic Constant Matrix: (Units=GPa)
#
#
# Indices 1 2 3 4 5 6 
#
# 1 38.1034 0.4746 5.2274 -0.3406 0.0000 0.0000
# 2 0.4746 38.1034 5.2274 0.3406 0.0000 0.0000
# 3 5.2274 5.2274 146.8951 0.0000 0.0000 0.0000
# 4 -0.3406 0.3406 0.0000 31.1554 0.0000 0.0000
# 5 0.0000 0.0000 0.0000 0.0000 31.1554 -0.3406
# 6 0.0000 0.0000 0.0000 0.0000 -0.3406 18.8144
#
#
#
# Elastic Compliance Matrix: (Units=1/GPa)
#
#
# Indices 1 2 3 4 5 6 
#
# 1 0.026377 -0.000203 -0.000931 0.000291 0.000000 0.000000
# 2 -0.000203 0.026377 -0.000931 -0.000291 0.000000 0.000000
# 3 -0.000931 -0.000931 0.006874 0.000000 0.000000 0.000000
# 4 0.000291 -0.000291 0.000000 0.032104 0.000000 0.000000
# 5 0.000000 0.000000 0.000000 0.000000 0.032104 0.000581
# 6 0.000000 0.000000 0.000000 0.000000 0.000581 0.053161
#
#
# Mechanical properties :
#
#
# Convention : Reuss Voigt Hill
#
# Bulk Modulus (GPa) = 18.01931 27.21787 22.61859
# Shear Modulus (GPa) = 25.04661 30.36987 27.70824
#
# Velocity S-wave (km/s) = 3.11526 3.43037 3.27660
# Velocity P-wave (km/s) = 4.46337 5.12211 4.80405
#
# Compressibility (1/GPa) = 0.05549602
#
# Stress axis : x y z
#
# Youngs Moduli (GPa) = 37.91143 37.91143 145.47847
#
# Poissons Ratio (x) = 0.00771 0.13550
# Poissons Ratio (y) = 0.00771 0.13550
# Poissons Ratio (z) = 0.03531 0.03531
#
# Static dielectric constant tensor:
#      x y z
#    x 2.082550 0.000000 0.000000 
#    y 0.000000 2.082550 0.000000 
#    z 0.000000 0.000000 2.082780 
# 
# From -- ./inp_files/3724.got.cif
#   From: 2010.05.17/outbox.cif.g08.bks.cpg/sg152_2_cif.got.tgz:3724.got - 2010.05.20 10:36:06.
