data_PCOD9576081
_publ_section_title
;
Structure prediction by ZEFSAII (Michael W. Deem and Ramdas Pophale) SiO2 
 PCOD9576081
Probable space group: P 31 2 1
;
_chemical_formula_sum "Si O2"
_cell_formula_units_Z 42
_cell_length_a 8.882305
_cell_length_b 8.882305
_cell_length_c 28.602884
_cell_angle_alpha 90.000000
_cell_angle_beta 90.000000
_cell_angle_gamma 120.000000
_cell_volume 1954.302647
_symmetry_space_group_name_H-M "P 31 2 1"
_symmetry_group_IT_number 152
_symmetry_cell_setting 'hexagonal'
loop_
_space_group_symop_operation_xyz
x,y,z
-y,x-y,1/3+z
-x+y,-x,2/3+z
x-y,-y,2/3-z
-x,-x+y,1/3-z
y,x,-z
loop_
_atom_site_type_symbol
_atom_site_label
_atom_site_fract_x
_atom_site_fract_y
_atom_site_fract_z
Si Si1 0.355539 0.859994 0.291415
Si Si2 0.184107 0.662371 0.149755
Si Si3 0.667878 0.842518 0.517609
Si Si4 0.674882 0.144318 0.463153
Si Si5 0.305240 0.477781 0.288263
Si Si6 0.171582 0.166019 0.636424
Si Si7 0.671870 0.640187 0.249011
O O1 0.509839 0.931257 0.252678
O O2 0.312006 0.660207 0.299076
O O3 0.166680 0.840025 0.280103
O O4 0.431277 0.000000 0.333334
O O5 0.168993 0.475680 0.150340
O O6 0.333753 0.765697 0.186804
O O7 0.000000 0.632810 0.166667
O O8 0.252240 0.774956 0.103553
O O9 0.839257 0.839257 0.500000
O O10 0.606931 0.809073 0.572158
O O11 0.672079 0.016029 0.501875
O O12 0.875958 0.286259 0.455205
O O13 0.232008 0.337027 0.329127
O O14 0.507434 0.532316 0.282020
O O15 0.193896 0.035958 0.602394
O O16 0.000000 0.063663 0.666667
#
# Coordination Sequence:
#
# PCOD9576081 Si02
#       7
#     6   6   6   6   6   6   6
#     4  10  23  46  67  97 130 180 227 274 341 406
#     4  11  21  41  67  97 131 171 217 271 332 409
#     4  11  25  42  67 100 131 179 218 270 345 402
#     4  11  22  45  65  98 137 166 224 280 333 411
#     4  11  23  47  66  95 136 172 227 277 337 409
#     4  11  26  44  66  97 133 176 228 281 333 408
#     4  11  24  41  66  98 127 175 217 277 343 388
#
# _framework density 21.491043000000001
#
# number of rings (size 3 to 8) (size 9 to 14) (size 15 to 20)
#    0.000    1.143    4.286    1.714    4.000    6.286 
#    5.143    0.000    0.000    0.000    0.000    0.000 
#    0.000    0.000    0.000    0.000    0.000    0.000 
#
# Total GULP energy -234177.878254 kJ/mol
# GULP energy per Si atom -5575.663768 kJ/mol
# Density = 2.144213 g / cm^3
# Si number density = 21.491043 Si / 1000 Ang^3
#
#
#
# Elastic Constant Matrix: (Units=GPa)
#
#
# Indices 1 2 3 4 5 6 
#
# 1 74.1802 17.4730 11.9027 6.6281 -0.0002 0.0000
# 2 17.4730 74.1802 11.9027 -6.6281 0.0002 0.0000
# 3 11.9027 11.9027 27.0800 0.0000 0.0000 0.0000
# 4 6.6281 -6.6281 0.0000 28.2679 0.0000 0.0002
# 5 -0.0002 0.0002 0.0000 0.0000 28.2679 6.6281
# 6 0.0000 0.0000 0.0000 0.0002 6.6281 28.3536
#
#
#
# Elastic Compliance Matrix: (Units=1/GPa)
#
#
# Indices 1 2 3 4 5 6 
#
# 1 0.015487 -0.003170 -0.005414 -0.004375 0.000000 0.000000
# 2 -0.003170 0.015487 -0.005414 0.004375 0.000000 0.000000
# 3 -0.005414 -0.005414 0.041687 0.000000 0.000000 0.000000
# 4 -0.004375 0.004375 0.000000 0.037427 0.000000 0.000000
# 5 0.000000 0.000000 0.000000 0.000000 0.037427 -0.008749
# 6 0.000000 0.000000 0.000000 0.000000 -0.008749 0.037314
#
#
# Mechanical properties :
#
#
# Convention : Reuss Voigt Hill
#
# Bulk Modulus (GPa) = 22.38866 28.66637 25.52752
# Shear Modulus (GPa) = 21.95746 25.92202 23.93974
#
# Velocity S-wave (km/s) = 3.19988 3.47677 3.34120
# Velocity P-wave (km/s) = 4.90842 5.43001 5.17579
#
# Compressibility (1/GPa) = 0.04466546
#
# Stress axis : x y z
#
# Youngs Moduli (GPa) = 64.57045 64.57045 23.98844
#
# Poissons Ratio (x) = 0.20470 0.12987
# Poissons Ratio (y) = 0.20470 0.12987
# Poissons Ratio (z) = 0.34957 0.34957
#
# Static dielectric constant tensor:
#      x y z
#    x 1.819730 0.000000 0.000000 
#    y 0.000000 1.819730 0.000000 
#    z 0.000000 0.000000 1.851290 
# 
# From -- ./inp_files/3739.got.cif
#   From: 2010.05.17/outbox.cif.g08.bks.cpg/sg152_2_cif.got.tgz:3739.got - 2010.05.20 10:36:06.
