data_PCOD9576095
_publ_section_title
;
Structure prediction by ZEFSAII (Michael W. Deem and Ramdas Pophale) SiO2 
 PCOD9576095
Probable space group: P 31 2 1
;
_chemical_formula_sum "Si O2"
_cell_formula_units_Z 36
_cell_length_a 8.589282
_cell_length_b 8.589282
_cell_length_c 23.692565
_cell_angle_alpha 90.000000
_cell_angle_beta 90.000000
_cell_angle_gamma 120.000000
_cell_volume 1513.757945
_symmetry_space_group_name_H-M "P 31 2 1"
_symmetry_group_IT_number 152
_symmetry_cell_setting 'hexagonal'
loop_
_space_group_symop_operation_xyz
x,y,z
-y,x-y,1/3+z
-x+y,-x,2/3+z
x-y,-y,2/3-z
-x,-x+y,1/3-z
y,x,-z
loop_
_atom_site_type_symbol
_atom_site_label
_atom_site_fract_x
_atom_site_fract_y
_atom_site_fract_z
Si Si1 0.283321 0.282124 0.178625
Si Si2 0.650045 0.365198 0.869256
Si Si3 0.733478 0.733478 0.000000
Si Si4 0.910799 0.000000 0.833334
Si Si5 0.442997 0.239032 0.429345
Si Si6 0.870245 0.695898 0.371940
Si Si7 0.090396 0.509317 0.028843
O O1 0.439804 0.261979 0.208186
O O2 0.366754 0.470561 0.147827
O O3 0.155947 0.286772 0.227484
O O4 0.162008 0.099984 0.144607
O O5 0.708493 0.281422 0.816941
O O6 0.598443 0.252128 0.926586
O O7 0.932377 0.777932 0.981158
O O8 0.583632 0.673985 0.950752
O O9 0.840697 0.081999 0.786261
O O10 0.494402 0.419860 0.396037
O O11 0.700506 0.704838 0.346696
O O12 0.860174 0.507816 0.355679
#
# Coordination Sequence:
#
# PCOD9576095 Si02
#       7
#     6   6   3   3   6   6   6
#     4  12  26  42  69  99 141 179 238 288 347 418
#     4  12  25  44  68 104 138 183 235 292 343 418
#     4  10  24  42  72  98 136 182 236 280 350 426
#     4  12  22  42  70  98 130 178 226 278 350 408
#     4  11  22  42  72  97 138 180 226 281 357 412
#     4  11  23  44  68  99 134 186 229 286 357 419
#     4  11  23  43  70  97 138 178 226 285 350 420
#
# _framework density 23.781873999999998
#
# number of rings (size 3 to 8) (size 9 to 14) (size 15 to 20)
#    0.000    0.667    5.000    3.000    0.000    0.000 
#    0.000    0.000    0.000    1.000    0.000    0.000 
#    0.000    0.000    0.000    0.000    0.000    0.000 
#
# Total GULP energy -201302.846759 kJ/mol
# GULP energy per Si atom -5591.745743 kJ/mol
# Density = 2.372775 g / cm^3
# Si number density = 23.781874 Si / 1000 Ang^3
#
#
#
# Elastic Constant Matrix: (Units=GPa)
#
#
# Indices 1 2 3 4 5 6 
#
# 1 102.6514 29.1170 4.9538 4.2995 0.0002 0.0000
# 2 29.1170 102.6514 4.9538 -4.2995 -0.0002 0.0000
# 3 4.9538 4.9538 47.3042 0.0000 0.0000 0.0000
# 4 4.2995 -4.2995 0.0000 29.8451 0.0000 -0.0002
# 5 0.0002 -0.0002 0.0000 0.0000 29.8451 4.2995
# 6 0.0000 0.0000 0.0000 -0.0002 4.2995 36.7672
#
#
#
# Elastic Compliance Matrix: (Units=1/GPa)
#
#
# Indices 1 2 3 4 5 6 
#
# 1 0.010741 -0.003091 -0.000801 -0.001993 0.000000 0.000000
# 2 -0.003091 0.010741 -0.000801 0.001993 0.000000 0.000000
# 3 -0.000801 -0.000801 0.021308 0.000000 0.000000 0.000000
# 4 -0.001993 0.001993 0.000000 0.034080 0.000000 0.000000
# 5 0.000000 0.000000 0.000000 0.000000 0.034080 -0.003985
# 6 0.000000 0.000000 0.000000 0.000000 -0.003985 0.027664
#
#
# Mechanical properties :
#
#
# Convention : Reuss Voigt Hill
#
# Bulk Modulus (GPa) = 29.93837 36.73958 33.33898
# Shear Modulus (GPa) = 31.41985 33.53030 32.47507
#
# Velocity S-wave (km/s) = 3.63873 3.75895 3.69933
# Velocity P-wave (km/s) = 5.50181 5.85847 5.68294
#
# Compressibility (1/GPa) = 0.03340195
#
# Stress axis : x y z
#
# Youngs Moduli (GPa) = 93.10384 93.10384 46.93170
#
# Poissons Ratio (x) = 0.28782 0.03759
# Poissons Ratio (y) = 0.28782 0.03759
# Poissons Ratio (z) = 0.07458 0.07458
#
# Static dielectric constant tensor:
#      x y z
#    x 1.925240 0.000000 0.000000 
#    y 0.000000 1.925240 0.000000 
#    z 0.000000 0.000000 1.913910 
# 
# From -- ./inp_files/3433.got.cif
#   From: 2010.05.17/outbox.cif.g08.bks.cpg/sg152_2_cif.got.tgz:3433.got - 2010.05.20 10:36:06.
