data_PCOD9576295
_publ_section_title
;
Structure prediction by ZEFSAII (Michael W. Deem and Ramdas Pophale) SiO2 
 PCOD9576295
Probable space group: P 32 1 2
;
_chemical_formula_sum "Si O2"
_cell_formula_units_Z 42
_cell_length_a 8.127609
_cell_length_b 8.127609
_cell_length_c 29.144386
_cell_angle_alpha 90.000000
_cell_angle_beta 90.000000
_cell_angle_gamma 120.000000
_cell_volume 1667.290006
_symmetry_space_group_name_H-M "P 32 1 2"
_symmetry_group_IT_number 153
_symmetry_cell_setting 'hexagonal'
loop_
_space_group_symop_operation_xyz
x,y,z
-y,x-y,2/3+z
-x+y,-x,1/3+z
-y,-x,1/3-z
-x+y,y,2/3-z
x,x-y,-z
loop_
_atom_site_type_symbol
_atom_site_label
_atom_site_fract_x
_atom_site_fract_y
_atom_site_fract_z
Si Si1 0.761666 0.620657 0.679395
Si Si2 0.554968 0.605950 0.469138
Si Si3 0.762629 0.900437 0.396727
Si Si4 0.614577 0.501241 0.295068
Si Si5 0.732386 0.204142 0.447480
Si Si6 0.097558 0.865355 0.916022
Si Si7 0.617513 0.857372 0.849513
O O1 0.566862 0.433139 0.666667
O O2 0.769192 0.803678 0.655240
O O3 0.916185 0.572443 0.657149
O O4 0.750871 0.671944 0.731794
O O5 0.567850 0.783925 0.500000
O O6 0.655091 0.696028 0.421069
O O7 0.639533 0.506485 0.502386
O O8 0.338825 0.457652 0.458247
O O9 0.975624 0.959796 0.409239
O O10 0.664988 0.012711 0.418787
O O11 0.779369 0.558738 0.333334
O O12 0.619357 0.373559 0.252151
O O13 0.634451 0.692228 0.272800
O O14 0.952536 0.267232 0.456071
O O15 0.128395 0.853805 0.862425
O O16 0.431031 0.862062 0.833334
#
# Coordination Sequence:
#
# PCOD9576295 Si02
#       7
#     6   6   6   6   6   6   6
#     4  10  24  40  63  91 122 168 225 276 329 400
#     4   9  20  35  61  93 131 164 209 265 336 399
#     4  10  21  40  65  86 129 170 211 265 345 403
#     4  10  22  39  63  89 128 167 218 271 332 395
#     4  10  20  40  62  95 129 168 215 280 332 395
#     4  12  23  41  67  93 129 178 222 268 350 413
#     4  11  22  36  66  98 129 166 220 276 334 407
#
# _framework density 25.190577999999999
#
# number of rings (size 3 to 8) (size 9 to 14) (size 15 to 20)
#    0.000    1.714    2.857    1.286   10.000    0.000 
#    0.000    7.143    6.286    0.000    0.000    0.000 
#    0.000    0.000    0.000    0.000    0.000    0.000 
#
# Total GULP energy -234322.656710 kJ/mol
# GULP energy per Si atom -5579.110874 kJ/mol
# Density = 2.513324 g / cm^3
# Si number density = 25.190578 Si / 1000 Ang^3
#
#
#
# Elastic Constant Matrix: (Units=GPa)
#
#
# Indices 1 2 3 4 5 6 
#
# 1 54.6380 7.4915 3.1727 0.0001 8.4201 0.0000
# 2 7.4915 54.6380 3.1727 -0.0001 -8.4201 0.0000
# 3 3.1727 3.1727 51.0746 0.0000 0.0000 0.0000
# 4 0.0001 -0.0001 0.0000 40.1233 0.0000 -8.4201
# 5 8.4201 -8.4201 0.0000 0.0000 40.1233 0.0001
# 6 0.0000 0.0000 0.0000 -8.4201 0.0001 23.5732
#
#
#
# Elastic Compliance Matrix: (Units=1/GPa)
#
#
# Indices 1 2 3 4 5 6 
#
# 1 0.019564 -0.003366 -0.001006 0.000000 -0.004812 0.000000
# 2 -0.003366 0.019564 -0.001006 0.000000 0.004812 0.000000
# 3 -0.001006 -0.001006 0.019704 0.000000 0.000000 0.000000
# 4 0.000000 0.000000 0.000000 0.026943 0.000000 0.009624
# 5 -0.004812 0.004812 0.000000 0.000000 0.026943 0.000000
# 6 0.000000 0.000000 0.000000 0.009624 0.000000 0.045858
#
#
# Mechanical properties :
#
#
# Convention : Reuss Voigt Hill
#
# Bulk Modulus (GPa) = 20.80051 20.89159 20.84605
# Shear Modulus (GPa) = 26.97500 30.53153 28.75327
#
# Velocity S-wave (km/s) = 3.27591 3.48519 3.38217
# Velocity P-wave (km/s) = 4.75226 4.95043 4.85236
#
# Compressibility (1/GPa) = 0.04807575
#
# Stress axis : x y z
#
# Youngs Moduli (GPa) = 51.11505 51.11505 50.75056
#
# Poissons Ratio (x) = 0.17203 0.05107
# Poissons Ratio (y) = 0.17203 0.05107
# Poissons Ratio (z) = 0.05143 0.05143
#
# Static dielectric constant tensor:
#      x y z
#    x 2.013160 0.000000 0.000000 
#    y 0.000000 2.013160 0.000000 
#    z 0.000000 0.000000 2.126800 
# 
# From -- ./inp_files/5154.got.cif
#   From: 2010.05.17/outbox.cif.g08.bks.cpg/sg153_3_cif.got.tgz:5154.got - 2010.05.20 10:38:56.
