data_PCOD9576779
_publ_section_title
;
Structure prediction by ZEFSAII (Michael W. Deem and Ramdas Pophale) SiO2 
 PCOD9576779
Probable space group: R 3 2
;
_chemical_formula_sum "Si O2"
_cell_formula_units_Z 108
_cell_length_a 17.690793
_cell_length_b 17.690793
_cell_length_c 21.984308
_cell_angle_alpha 90.000000
_cell_angle_beta 90.000000
_cell_angle_gamma 120.000000
_cell_volume 5958.514949
_symmetry_space_group_name_H-M "R 3 2"
_symmetry_group_IT_number 155
_symmetry_cell_setting 'hexagonal'
loop_
_space_group_symop_operation_xyz
x,y,z
-y,x-y,z
-x+y,-x,z
x-y,-y,-z
-x,-x+y,-z
y,x,-z
2/3+x,1/3+y,1/3+z
2/3-y,1/3+x-y,1/3+z
2/3-x+y,1/3-x,1/3+z
2/3+x-y,1/3-y,1/3-z
2/3-x,1/3-x+y,1/3-z
2/3+y,1/3+x,1/3-z
1/3+x,2/3+y,2/3+z
1/3-y,2/3+x-y,2/3+z
1/3-x+y,2/3-x,2/3+z
1/3+x-y,2/3-y,2/3-z
1/3-x,2/3-x+y,2/3-z
1/3+y,2/3+x,2/3-z
loop_
_atom_site_type_symbol
_atom_site_label
_atom_site_fract_x
_atom_site_fract_y
_atom_site_fract_z
Si Si1 0.859906 0.560855 0.656924
Si Si2 0.060010 0.779405 0.560023
Si Si3 0.414809 0.130734 0.620575
Si Si4 0.250617 0.341729 0.761728
Si Si5 0.570502 0.583086 0.820741
Si Si6 0.064573 0.284251 0.943735
O O1 0.907211 0.666667 0.666667
O O2 0.879031 0.525597 0.718497
O O3 0.758992 0.529246 0.643746
O O4 0.913619 0.548859 0.602535
O O5 0.054149 0.688092 0.577977
O O6 0.159776 0.847616 0.546970
O O7 0.000000 0.758423 0.500000
O O8 0.333334 0.084749 0.666667
O O9 0.384756 0.137700 0.552657
O O10 0.441611 0.056592 0.616583
O O11 0.229343 0.333334 0.833334
O O12 0.208576 0.394190 0.730797
O O13 0.666667 0.599077 0.833334
O O14 0.587097 0.666955 0.781243
O O15 0.000000 0.237383 0.000000
#
# Coordination Sequence:
#
# PCOD9576779 Si02
#       6
#    18  18  18  18  18  18
#     4   9  17  29  47  72  98 128 167 212 260 307
#     4  10  19  32  53  79 105 136 175 219 264 315
#     4   9  16  29  47  69  98 130 167 211 257 311
#     4  10  18  30  48  73 102 133 172 220 263 308
#     4  10  19  32  51  77 105 138 176 216 265 315
#     4  10  20  32  49  74 104 137 176 222 268 312
#
# _framework density 18.125321
#
# number of rings (size 3 to 8) (size 9 to 14) (size 15 to 20)
#    0.000    2.333    0.000    6.500    0.000    0.000 
#    0.000    0.000    0.000    1.667    0.000   31.500 
#    0.000    0.000    0.000    0.000    0.000    0.000 
#
# Total GULP energy -200606.881020 kJ/mol
# GULP energy per Si atom -5572.413362 kJ/mol
# Density = 1.808407 g / cm^3
# Si number density = 18.125321 Si / 1000 Ang^3
#
#
#
# Elastic Constant Matrix: (Units=GPa)
#
#
# Indices 1 2 3 4 5 6 
#
# 1 59.4881 30.0807 25.0453 -3.4057 -0.0006 0.0000
# 2 30.0807 59.4881 25.0453 3.4057 0.0006 0.0000
# 3 25.0453 25.0453 102.7955 0.0000 0.0000 0.0000
# 4 -3.4057 3.4057 0.0000 9.1977 0.0000 0.0006
# 5 -0.0006 0.0006 0.0000 0.0000 9.1977 -3.4057
# 6 0.0000 0.0000 0.0000 0.0006 -3.4057 14.7037
#
#
#
# Elastic Compliance Matrix: (Units=1/GPa)
#
#
# Indices 1 2 3 4 5 6 
#
# 1 0.025060 -0.012135 -0.003149 0.013773 0.000002 0.000000
# 2 -0.012135 0.025060 -0.003149 -0.013773 -0.000002 0.000000
# 3 -0.003149 -0.003149 0.011263 0.000000 0.000000 0.000000
# 4 0.013773 -0.013773 0.000000 0.118922 0.000000 -0.000005
# 5 0.000002 -0.000002 0.000000 0.000000 0.118922 0.027545
# 6 0.000000 0.000000 0.000000 -0.000005 0.027545 0.074390
#
#
# Mechanical properties :
#
#
# Convention : Reuss Voigt Hill
#
# Bulk Modulus (GPa) = 40.78775 42.45716 41.62245
# Shear Modulus (GPa) = 11.94296 16.05986 14.00141
#
# Velocity S-wave (km/s) = 2.56971 2.97988 2.78236
# Velocity P-wave (km/s) = 5.59970 5.94261 5.77370
#
# Compressibility (1/GPa) = 0.02451717
#
# Stress axis : x y z
#
# Youngs Moduli (GPa) = 39.90352 39.90352 88.78917
#
# Poissons Ratio (x) = 0.48422 0.27962
# Poissons Ratio (y) = 0.48422 0.27962
# Poissons Ratio (z) = 0.12567 0.12567
#
# Static dielectric constant tensor:
#      x y z
#    x 1.643090 0.000000 0.000000 
#    y 0.000000 1.643090 0.000000 
#    z 0.000000 0.000000 1.675290 
# 
# From -- ./inp_files/6989.got.cif
#   From: 2010.05.17/outbox.cif.g08.bks.cpg/sg155_4_cif.got.tgz:6989.got - 2010.05.20 10:44:35.
