data_PCOD9576003
_publ_section_title
;
Structure prediction by ZEFSAII (Michael W. Deem and Ramdas Pophale) SiO2 
 PCOD9576003
Probable space group: P 31 2 1
;
_chemical_formula_sum "Si O2"
_cell_formula_units_Z 18
_cell_length_a 8.591376
_cell_length_b 8.591376
_cell_length_c 11.398064
_cell_angle_alpha 90.000000
_cell_angle_beta 90.000000
_cell_angle_gamma 120.000000
_cell_volume 728.596659
_symmetry_space_group_name_H-M "P 31 2 1"
_symmetry_group_IT_number 152
_symmetry_cell_setting 'hexagonal'
loop_
_space_group_symop_operation_xyz
x,y,z
-y,x-y,1/3+z
-x+y,-x,2/3+z
x-y,-y,2/3-z
-x,-x+y,1/3-z
y,x,-z
loop_
_atom_site_type_symbol
_atom_site_label
_atom_site_fract_x
_atom_site_fract_y
_atom_site_fract_z
Si Si1 0.233200 0.233200 0.500000
Si Si2 0.340597 0.429813 0.149209
Si Si3 0.093791 0.093791 0.000000
Si Si4 0.338632 0.741483 0.251606
O O1 0.258092 0.417600 0.550883
O O2 0.085683 0.150109 0.395786
O O3 0.310674 0.541690 0.248776
O O4 0.504257 0.393228 0.167750
O O5 0.174241 0.248637 0.099761
O O6 0.397204 0.571663 0.042267
#
# Coordination Sequence:
#
# PCOD9576003 Si02
#       4
#     3   6   3   6
#     4  12  24  38  60  92 126 166 208 258 312 370
#     4  10  22  42  64  89 123 164 207 259 312 370
#     4  10  24  42  62  88 128 170 210 258 306 364
#     4  10  22  39  63  92 122 161 206 257 315 373
#
# _framework density 24.705024000000002
#
# number of rings (size 3 to 8) (size 9 to 14) (size 15 to 20)
#    0.000    2.000    0.000    6.000    0.000    9.333 
#    0.000    0.000    0.000    0.000    0.000    0.000 
#    0.000    0.000    0.000    0.000    0.000    0.000 
#
# Total GULP energy -100748.141726 kJ/mol
# GULP energy per Si atom -5597.118985 kJ/mol
# Density = 2.464879 g / cm^3
# Si number density = 24.705024 Si / 1000 Ang^3
#
#
#
# Elastic Constant Matrix: (Units=GPa)
#
#
# Indices 1 2 3 4 5 6 
#
# 1 137.9643 65.8986 18.2508 -7.2922 0.0000 0.0000
# 2 65.8986 137.9643 18.2508 7.2922 0.0000 0.0000
# 3 18.2508 18.2508 33.0161 0.0000 0.0000 0.0000
# 4 -7.2922 7.2922 0.0000 34.4025 0.0000 0.0000
# 5 0.0000 0.0000 0.0000 0.0000 34.4025 -7.2922
# 6 0.0000 0.0000 0.0000 0.0000 -7.2922 36.0328
#
#
#
# Elastic Compliance Matrix: (Units=1/GPa)
#
#
# Indices 1 2 3 4 5 6 
#
# 1 0.009971 -0.004527 -0.003009 0.003073 0.000000 0.000000
# 2 -0.004527 0.009971 -0.003009 -0.003073 0.000000 0.000000
# 3 -0.003009 -0.003009 0.033615 0.000000 0.000000 0.000000
# 4 0.003073 -0.003073 0.000000 0.030370 0.000000 0.000000
# 5 0.000000 0.000000 0.000000 0.000000 0.030370 0.006146
# 6 0.000000 0.000000 0.000000 0.000000 0.006146 0.028996
#
#
# Mechanical properties :
#
#
# Convention : Reuss Voigt Hill
#
# Bulk Modulus (GPa) = 30.80153 57.08279 43.94216
# Shear Modulus (GPa) = 28.53742 34.73720 31.63731
#
# Velocity S-wave (km/s) = 3.40240 3.75384 3.58243
# Velocity P-wave (km/s) = 5.28487 6.47644 5.91076
#
# Compressibility (1/GPa) = 0.03246592
#
# Stress axis : x y z
#
# Youngs Moduli (GPa) = 100.28955 100.28955 29.74830
#
# Poissons Ratio (x) = 0.45401 0.08952
# Poissons Ratio (y) = 0.45401 0.08952
# Poissons Ratio (z) = 0.30181 0.30181
#
# Static dielectric constant tensor:
#      x y z
#    x 1.922240 0.000000 0.000000 
#    y 0.000000 1.922240 0.000000 
#    z 0.000000 0.000000 2.131630 
# 
# From -- ./inp_files/1471.got.cif
#   From: 2010.05.17/outbox.cif.g08.bks.cpg/sg152_1_cif.got.tgz:1471.got - 2010.05.20 10:36:06.
