data_PCOD9576592
_publ_section_title
;
Structure prediction by ZEFSAII (Michael W. Deem and Ramdas Pophale) SiO2 
 PCOD9576592
Probable space group: P 32 2 1
;
_chemical_formula_sum "Si O2"
_cell_formula_units_Z 30
_cell_length_a 18.793719
_cell_length_b 18.793719
_cell_length_c 5.208552
_cell_angle_alpha 90.000000
_cell_angle_beta 90.000000
_cell_angle_gamma 120.000000
_cell_volume 1593.210259
_symmetry_space_group_name_H-M "P 32 2 1"
_symmetry_group_IT_number 154
_symmetry_cell_setting 'hexagonal'
loop_
_space_group_symop_operation_xyz
x,y,z
-y,x-y,2/3+z
-x+y,-x,1/3+z
x-y,-y,1/3-z
-x,-x+y,2/3-z
y,x,-z
loop_
_atom_site_type_symbol
_atom_site_label
_atom_site_fract_x
_atom_site_fract_y
_atom_site_fract_z
Si Si1 0.360034 0.310043 0.249396
Si Si2 0.538515 0.458899 0.352052
Si Si3 0.567197 0.761332 0.510429
Si Si4 0.583375 0.678822 0.994540
Si Si5 0.644013 0.392825 0.602112
O O1 0.311734 0.311734 0.500000
O O2 0.448586 0.393225 0.259812
O O3 0.384458 0.240209 0.232204
O O4 0.312830 0.312830 0.000000
O O5 0.529143 0.529143 0.500000
O O6 0.599888 0.500423 0.114356
O O7 0.573423 0.415065 0.541417
O O8 0.601159 0.745101 0.772390
O O9 0.468410 0.721770 0.548172
O O10 0.573059 0.709979 0.270312
O O11 0.651173 0.651173 0.000000
O O12 0.606360 0.297396 0.525225
#
# Coordination Sequence:
#
# PCOD9576592 Si02
#       5
#     6   6   6   6   6
#     4  11  23  40  59  82 115 155 196 238 292 356
#     4  10  22  39  58  80 109 153 204 244 306 362
#     4  11  24  39  58  87 112 153 198 243 300 352
#     4  11  22  40  60  82 113 149 194 247 294 352
#     4  11  24  36  55  78 112 145 197 262 310 342
#
# _framework density 18.829906999999999
#
# number of rings (size 3 to 8) (size 9 to 14) (size 15 to 20)
#    0.000    1.200    2.000    4.800    5.600    6.400 
#    0.000    0.000    0.000    0.000    0.000    0.000 
#    0.000    0.000    0.000   75.600    0.000    0.000 
#
# Total GULP energy -167443.557498 kJ/mol
# GULP energy per Si atom -5581.451917 kJ/mol
# Density = 1.878705 g / cm^3
# Si number density = 18.829907 Si / 1000 Ang^3
#
#
#
# Elastic Constant Matrix: (Units=GPa)
#
#
# Indices 1 2 3 4 5 6 
#
# 1 65.6056 19.1595 26.1327 -2.4820 0.0000 0.0000
# 2 19.1595 65.6056 26.1327 2.4820 0.0000 0.0000
# 3 26.1327 26.1327 94.1065 0.0000 0.0000 0.0000
# 4 -2.4820 2.4820 0.0000 24.2198 0.0000 0.0000
# 5 0.0000 0.0000 0.0000 0.0000 24.2198 -2.4820
# 6 0.0000 0.0000 0.0000 0.0000 -2.4820 23.2230
#
#
#
# Elastic Compliance Matrix: (Units=1/GPa)
#
#
# Indices 1 2 3 4 5 6 
#
# 1 0.018002 -0.003767 -0.003953 0.002231 0.000000 0.000000
# 2 -0.003767 0.018002 -0.003953 -0.002231 0.000000 0.000000
# 3 -0.003953 -0.003953 0.012822 0.000000 0.000000 0.000000
# 4 0.002231 -0.002231 0.000000 0.041746 0.000000 0.000000
# 5 0.000000 0.000000 0.000000 0.000000 0.041746 0.004462
# 6 0.000000 0.000000 0.000000 0.000000 0.004462 0.043538
#
#
# Mechanical properties :
#
#
# Convention : Reuss Voigt Hill
#
# Bulk Modulus (GPa) = 39.24739 40.90753 40.07746
# Shear Modulus (GPa) = 24.07403 24.59205 24.33304
#
# Velocity S-wave (km/s) = 3.57949 3.61780 3.59869
# Velocity P-wave (km/s) = 6.16215 6.26284 6.21270
#
# Compressibility (1/GPa) = 0.02547940
#
# Stress axis : x y z
#
# Youngs Moduli (GPa) = 55.55039 55.55039 77.99335
#
# Poissons Ratio (x) = 0.20926 0.30830
# Poissons Ratio (y) = 0.20926 0.30830
# Poissons Ratio (z) = 0.21958 0.21958
#
# Static dielectric constant tensor:
#      x y z
#    x 1.690940 0.000000 0.000000 
#    y 0.000000 1.690940 0.000000 
#    z 0.000000 0.000000 1.739380 
# 
# From -- ./inp_files/330.got.cif
#   From: 2010.05.17/outbox.cif.g08.bks.cpg/sg154_1_cif.got.tgz:330.got - 2010.05.20 10:41:43.
