data_PCOD9576586
_publ_section_title
;
Structure prediction by ZEFSAII (Michael W. Deem and Ramdas Pophale) SiO2 
 PCOD9576586
Probable space group: P 32 2 1
;
_chemical_formula_sum "Si O2"
_cell_formula_units_Z 42
_cell_length_a 21.039734
_cell_length_b 21.039734
_cell_length_c 5.696494
_cell_angle_alpha 90.000000
_cell_angle_beta 90.000000
_cell_angle_gamma 120.000000
_cell_volume 2183.829688
_symmetry_space_group_name_H-M "P 32 2 1"
_symmetry_group_IT_number 154
_symmetry_cell_setting 'hexagonal'
loop_
_space_group_symop_operation_xyz
x,y,z
-y,x-y,2/3+z
-x+y,-x,1/3+z
x-y,-y,1/3-z
-x,-x+y,2/3-z
y,x,-z
loop_
_atom_site_type_symbol
_atom_site_label
_atom_site_fract_x
_atom_site_fract_y
_atom_site_fract_z
Si Si1 0.263169 0.610501 0.834295
Si Si2 0.000000 0.702389 0.333334
Si Si3 0.531757 0.422469 0.680331
Si Si4 0.198472 0.702843 0.334213
Si Si5 0.678722 0.718988 0.743746
Si Si6 0.423630 0.000000 0.166667
Si Si7 0.194535 0.341151 0.224494
Si Si8 0.699071 0.100624 0.057368
O O1 0.308104 0.611702 0.605863
O O2 0.179491 0.583805 0.787355
O O3 0.274718 0.557204 0.009077
O O4 0.929812 0.705642 0.244937
O O5 0.965441 0.642863 0.541488
O O6 0.525433 0.381467 0.925779
O O7 0.554033 0.506665 0.666235
O O8 0.454396 0.369490 0.553601
O O9 0.181887 0.754383 0.498049
O O10 0.173231 0.715320 0.083399
O O11 0.724805 0.724805 0.500000
O O12 0.600991 0.649348 0.658404
O O13 0.678829 0.793454 0.806272
O O14 0.698936 0.698936 0.000000
O O15 0.223960 0.343333 0.487645
#
# Coordination Sequence:
#
# PCOD9576586 Si02
#       8
#     6   3   6   6   6   3   6   6
#     4  12  22  38  53  83 114 161 224 271 344 400
#     4  10  22  38  66  98 128 158 216 270 348 410
#     4  11  23  38  58  85 124 167 222 286 353 417
#     4  10  22  37  58  85 119 169 214 290 339 406
#     4  10  25  47  67 100 133 185 226 277 332 416
#     4  10  26  42  62  92 128 186 228 288 354 418
#     4  10  22  41  68  94 132 166 223 268 345 407
#     4  10  22  36  58  95 124 172 209 285 349 404
#
# _framework density 19.232267
#
# number of rings (size 3 to 8) (size 9 to 14) (size 15 to 20)
#    0.429    1.143    2.857    1.286   10.000    1.143 
#    2.571    0.000    0.000    0.000    0.000    0.000 
#    2.143    0.000    0.000    0.000    0.000    0.000 
#
# Total GULP energy -233853.735384 kJ/mol
# GULP energy per Si atom -5567.946081 kJ/mol
# Density = 1.918849 g / cm^3
# Si number density = 19.232267 Si / 1000 Ang^3
#
#
#
# Elastic Constant Matrix: (Units=GPa)
#
#
# Indices 1 2 3 4 5 6 
#
# 1 96.2909 44.2168 29.6753 1.2477 0.0000 0.0000
# 2 44.2168 96.2909 29.6753 -1.2477 0.0000 0.0000
# 3 29.6753 29.6753 78.7283 0.0000 0.0000 0.0000
# 4 1.2477 -1.2477 0.0000 25.8240 0.0000 0.0000
# 5 0.0000 0.0000 0.0000 0.0000 25.8240 1.2477
# 6 0.0000 0.0000 0.0000 0.0000 1.2477 26.0370
#
#
#
# Elastic Compliance Matrix: (Units=1/GPa)
#
#
# Indices 1 2 3 4 5 6 
#
# 1 0.013856 -0.005392 -0.003191 -0.000930 0.000000 0.000000
# 2 -0.005392 0.013856 -0.003191 0.000930 0.000000 0.000000
# 3 -0.003191 -0.003191 0.015107 0.000000 0.000000 0.000000
# 4 -0.000930 0.000930 0.000000 0.038814 0.000000 0.000000
# 5 0.000000 0.000000 0.000000 0.000000 0.038814 -0.001860
# 6 0.000000 0.000000 0.000000 0.000000 -0.001860 0.038496
#
#
# Mechanical properties :
#
#
# Convention : Reuss Voigt Hill
#
# Bulk Modulus (GPa) = 51.88288 53.16054 52.52171
# Shear Modulus (GPa) = 26.46714 26.71986 26.59350
#
# Velocity S-wave (km/s) = 3.71372 3.73141 3.72257
# Velocity P-wave (km/s) = 6.73977 6.80190 6.77091
#
# Compressibility (1/GPa) = 0.01927418
#
# Stress axis : x y z
#
# Youngs Moduli (GPa) = 72.16892 72.16892 66.19343
#
# Poissons Ratio (x) = 0.38911 0.21120
# Poissons Ratio (y) = 0.38911 0.21120
# Poissons Ratio (z) = 0.23027 0.23027
#
# Static dielectric constant tensor:
#      x y z
#    x 1.674530 0.000000 0.000000 
#    y 0.000000 1.674530 0.000000 
#    z 0.000000 0.000000 1.829710 
# 
# From -- ./inp_files/556.got.cif
#   From: 2010.05.17/outbox.cif.g08.bks.cpg/sg154_1_cif.got.tgz:556.got - 2010.05.20 10:41:43.
