data_PCOD9577396
_publ_section_title
;
Structure prediction by ZEFSAII (Michael W. Deem and Ramdas Pophale) SiO2 
 PCOD9577396
Probable space group: P 3 1 C
;
_chemical_formula_sum "Si O2"
_cell_formula_units_Z 42
_cell_length_a 8.414717
_cell_length_b 8.414717
_cell_length_c 29.074854
_cell_angle_alpha 90.000000
_cell_angle_beta 90.000000
_cell_angle_gamma 120.000000
_cell_volume 1782.900897
_symmetry_space_group_name_H-M "P 3 1 C"
_symmetry_group_IT_number 159
_symmetry_cell_setting 'hexagonal'
loop_
_space_group_symop_operation_xyz
x,y,z
-y,x-y,z
-x+y,-x,z
y,x,1/2+z
x-y,-y,1/2+z
-x,-x+y,1/2+z
loop_
_atom_site_type_symbol
_atom_site_label
_atom_site_fract_x
_atom_site_fract_y
_atom_site_fract_z
Si Si1 0.372349 0.377189 0.609450
Si Si2 0.319083 0.308741 0.486317
Si Si3 0.008204 0.321466 0.248773
Si Si4 0.995737 0.312261 0.644147
Si Si5 0.632193 0.628629 0.024335
Si Si6 0.446743 0.311200 0.391088
Si Si7 0.340686 0.348430 0.787679
O O1 0.388410 0.198096 0.618222
O O2 0.478641 0.520786 0.649906
O O3 0.495936 0.514130 0.567655
O O4 0.529428 0.469362 0.488100
O O5 0.189604 0.381174 0.507214
O O6 0.301182 0.268144 0.432221
O O7 0.301909 0.146015 0.519431
O O8 0.026365 0.272663 0.196107
O O9 0.138463 0.274806 0.278238
O O10 0.063259 0.528146 0.262379
O O11 0.800061 0.197817 0.263879
O O12 0.157852 0.310124 0.614786
O O13 0.504946 0.154503 0.393553
O O14 0.377567 0.332933 0.341733
#
# Coordination Sequence:
#
# PCOD9577396 Si02
#       7
#     6   6   6   6   6   6   6
#     4  12  27  47  77 107 150 197 257 319 384 462
#     4  12  25  47  78 110 156 198 256 315 382 466
#     4  12  24  44  70 109 151 204 256 316 379 449
#     4  12  25  47  72 107 151 203 256 316 385 455
#     4  12  26  48  76 115 147 200 253 316 391 455
#     4  10  20  46  76 109 152 207 254 306 389 449
#     4  12  25  43  73 109 155 201 256 314 374 454
#
# _framework density 23.557113999999999
#
# number of rings (size 3 to 8) (size 9 to 14) (size 15 to 20)
#    0.286    0.000    2.857    6.857    0.000    2.286 
#    0.000    2.857    0.000    0.000    0.000    0.000 
#    0.000    0.000    0.000    0.000    0.000    0.000 
#
# Total GULP energy -234298.879398 kJ/mol
# GULP energy per Si atom -5578.544748 kJ/mol
# Density = 2.350350 g / cm^3
# Si number density = 23.557114 Si / 1000 Ang^3
#
#
#
# Elastic Constant Matrix: (Units=GPa)
#
#
# Indices 1 2 3 4 5 6 
#
# 1 117.3776 14.2617 37.9227 0.0000 9.3034 0.0000
# 2 14.2617 117.3776 37.9227 0.0000 -9.3034 0.0000
# 3 37.9227 37.9227 197.5471 0.0000 0.0000 0.0000
# 4 0.0000 0.0000 0.0000 84.7532 0.0000 -9.3034
# 5 9.3034 -9.3034 0.0000 0.0000 84.7532 0.0000
# 6 0.0000 0.0000 0.0000 -9.3034 0.0000 51.5579
#
#
#
# Elastic Compliance Matrix: (Units=1/GPa)
#
#
# Indices 1 2 3 4 5 6 
#
# 1 0.009218 -0.000676 -0.001640 0.000000 -0.001086 0.000000
# 2 -0.000676 0.009218 -0.001640 0.000000 0.001086 0.000000
# 3 -0.001640 -0.001640 0.005692 0.000000 0.000000 0.000000
# 4 0.000000 0.000000 0.000000 0.012037 0.000000 0.002172
# 5 -0.001086 0.001086 0.000000 0.000000 0.012037 0.000000
# 6 0.000000 0.000000 0.000000 0.002172 0.000000 0.019788
#
#
# Mechanical properties :
#
#
# Convention : Reuss Voigt Hill
#
# Bulk Modulus (GPa) = 61.66951 68.05739 64.86345
# Shear Modulus (GPa) = 61.49660 67.02588 64.26124
#
# Velocity S-wave (km/s) = 5.11488 5.33988 5.22859
# Velocity P-wave (km/s) = 7.81781 8.18365 8.00282
#
# Compressibility (1/GPa) = 0.01621547
#
# Stress axis : x y z
#
# Youngs Moduli (GPa) = 108.48921 108.48921 175.69751
#
# Poissons Ratio (x) = 0.07337 0.28808
# Poissons Ratio (y) = 0.07337 0.28808
# Poissons Ratio (z) = 0.17788 0.17788
#
# Static dielectric constant tensor:
#      x y z
#    x 1.816130 0.000000 0.000000 
#    y 0.000000 1.816130 0.000000 
#    z 0.000000 0.000000 1.991180 
# 
# From -- ./inp_files/1314.got.cif
#   From: 2010.05.17/outbox.cif.g08.bks.cpg/sg159_cif.got.tgz:1314.got - 2010.05.20 10:50:30.
