data_PCOD9577867
_publ_section_title
;
Structure prediction by ZEFSAII (Michael W. Deem and Ramdas Pophale) SiO2 
 PCOD9577867
Probable space group: P -3 1 M 
;
_chemical_formula_sum "Si O2"
_cell_formula_units_Z 54
_cell_length_a 26.086116
_cell_length_b 26.086116
_cell_length_c 5.373779
_cell_angle_alpha 90.000000
_cell_angle_beta 90.000000
_cell_angle_gamma 120.000000
_cell_volume 3166.862999
_symmetry_space_group_name_H-M "P -3 1 M "
_symmetry_group_IT_number 162
_symmetry_cell_setting 'hexagonal'
loop_
_space_group_symop_operation_xyz
x,y,z
-y,x-y,z
-x+y,-x,z
-y,-x,-z
-x+y,y,-z
x,x-y,-z
-x,-y,-z
y,-x+y,-z
x-y,x,-z
y,x,z
x-y,-y,z
-x,-x+y,z
loop_
_atom_site_type_symbol
_atom_site_label
_atom_site_fract_x
_atom_site_fract_y
_atom_site_fract_z
Si Si1 0.065335 0.934666 0.500000
Si Si2 0.927653 0.318666 0.113916
Si Si3 0.837141 0.065547 0.150196
Si Si4 0.731074 0.661153 0.606406
Si Si5 0.493515 0.928091 0.749851
O O1 0.111353 0.937750 0.702251
O O2 0.000000 0.909861 0.607404
O O3 0.906906 0.270439 0.333223
O O4 0.910825 0.366887 0.207981
O O5 0.000000 0.353634 0.098404
O O6 0.906443 0.290018 0.841345
O O7 0.792248 0.073016 0.327835
O O8 0.797227 0.000000 0.022465
O O9 0.874175 0.125825 0.000000
O O10 0.683117 0.683117 0.593624
O O11 0.453891 0.907782 0.500000
O O12 0.529202 0.000000 0.738527
O O13 0.455262 0.910524 0.000000
#
# Coordination Sequence:
#
# PCOD9577867 Si02
#       5
#     6  12  12  12  12
#     4  10  21  36  54  72  90 108 134 178 248 340
#     4   9  16  27  40  59  84 112 143 174 209 250
#     4  10  21  34  50  68  86 109 139 182 240 312
#     4   9  18  29  44  61  83 110 139 175 219 270
#     4   9  15  22  35  55  81 112 144 175 205 235
#
# _framework density 17.051576000000001
#
# number of rings (size 3 to 8) (size 9 to 14) (size 15 to 20)
#    0.000    2.667    0.000    2.111    3.111    5.333 
#    0.000    0.000    0.000    3.556    0.000    0.000 
#    0.000    0.000    0.000    0.000    0.000    0.000 
#
# Total GULP energy -300627.524193 kJ/mol
# GULP energy per Si atom -5567.176374 kJ/mol
# Density = 1.701277 g / cm^3
# Si number density = 17.051576 Si / 1000 Ang^3
#
#
#
# Elastic Constant Matrix: (Units=GPa)
#
#
# Indices 1 2 3 4 5 6 
#
# 1 18.4634 22.1184 -0.2254 0.0002 -3.3730 0.0000
# 2 22.1184 18.4634 -0.2254 -0.0002 3.3730 0.0000
# 3 -0.2254 -0.2254 48.4881 0.0000 0.0000 0.0000
# 4 0.0002 -0.0002 0.0000 15.5649 0.0000 3.3730
# 5 -3.3730 3.3730 0.0000 0.0000 15.5649 0.0002
# 6 0.0000 0.0000 0.0000 3.3730 0.0002 -1.8275
#
#
#
# Elastic Compliance Matrix: (Units=1/GPa)
#
#
# Indices 1 2 3 4 5 6 
#
# 1 -0.085395 0.110038 0.000115 0.000003 -0.042351 0.000000
# 2 0.110038 -0.085395 0.000115 -0.000003 0.042351 0.000000
# 3 0.000115 0.000115 0.020625 0.000000 0.000000 0.000000
# 4 0.000003 -0.000003 0.000000 0.045892 0.000000 0.084702
# 5 -0.042351 0.042351 0.000000 0.000000 0.045892 0.000006
# 6 0.000000 0.000000 0.000000 0.084702 0.000006 -0.390868
#
#
# Mechanical properties :
#
#
# Convention : Reuss Voigt Hill
#
# Bulk Modulus (GPa) = 14.21090 14.30559 14.25824
# Shear Modulus (GPa) = -7.73600 10.11027 1.18713
#
# Velocity S-wave (km/s) = -2.13229 2.43764 0.83529
# Velocity P-wave (km/s) = 1.51325 4.04112 3.05127
#
# Compressibility (1/GPa) = 0.07036852
#
# Stress axis : x y z
#
# Youngs Moduli (GPa) = -11.71022 -11.71022 48.48561
#
# Poissons Ratio (x) = 1.28857 -0.00555
# Poissons Ratio (y) = 1.28857 -0.00555
# Poissons Ratio (z) = 0.00134 0.00134
#
# Static dielectric constant tensor:
#      x y z
#    x 1.594120 0.000000 0.000000 
#    y 0.000000 1.594120 0.000000 
#    z 0.000000 0.000000 1.642820 
# 
# From -- ./inp_files/552.got.cif
#   From: 2010.05.17/outbox.cif.g08.bks.cpg/sg162_1_cif.got.tgz:552.got - 2010.05.20 10:53:12.
