data_PCOD9577436
_publ_section_title
;
Structure prediction by ZEFSAII (Michael W. Deem and Ramdas Pophale) SiO2 
 PCOD9577436
Probable space group: P 3 1 C
;
_chemical_formula_sum "Si O2"
_cell_formula_units_Z 24
_cell_length_a 12.055709
_cell_length_b 12.055709
_cell_length_c 7.443054
_cell_angle_alpha 90.000000
_cell_angle_beta 90.000000
_cell_angle_gamma 120.000000
_cell_volume 936.844075
_symmetry_space_group_name_H-M "P 3 1 C"
_symmetry_group_IT_number 159
_symmetry_cell_setting 'hexagonal'
loop_
_space_group_symop_operation_xyz
x,y,z
-y,x-y,z
-x+y,-x,z
y,x,1/2+z
x-y,-y,1/2+z
-x,-x+y,1/2+z
loop_
_atom_site_type_symbol
_atom_site_label
_atom_site_fract_x
_atom_site_fract_y
_atom_site_fract_z
Si Si1 0.874411 0.142193 0.023800
Si Si2 0.651683 0.554210 0.719764
Si Si3 0.565948 0.172783 0.061784
Si Si4 0.139191 0.851321 0.943147
O O1 0.864995 0.162334 0.233183
O O2 0.017993 0.163442 0.011560
O O3 0.752414 0.007433 0.974589
O O4 0.896992 0.251357 0.877800
O O5 0.749715 0.591093 0.552958
O O6 0.588726 0.429291 0.844549
O O7 0.530954 0.568170 0.652288
O O8 0.715713 0.248255 0.112164
#
# Coordination Sequence:
#
# PCOD9577436 Si02
#       4
#     6   6   6   6
#     4  12  21  36  64 108 160 212 263 317 412 488
#     4  12  22  48  81 103 167 213 251 365 404 468
#     4  10  26  54  83 120 160 214 296 345 409 526
#     4  12  21  36  64 107 161 213 256 327 405 486
#
# _framework density 25.617926000000001
#
# number of rings (size 3 to 8) (size 9 to 14) (size 15 to 20)
#    0.500    0.000    7.500    0.500    0.000    0.000 
#    4.500    2.500    0.000    0.000    0.000    0.000 
#    0.000    0.000    0.000    0.000    0.000    0.000 
#
# Total GULP energy -133659.431381 kJ/mol
# GULP energy per Si atom -5569.142974 kJ/mol
# Density = 2.555962 g / cm^3
# Si number density = 25.617926 Si / 1000 Ang^3
#
#
#
# Elastic Constant Matrix: (Units=GPa)
#
#
# Indices 1 2 3 4 5 6 
#
# 1 97.7411 31.7753 50.9225 0.0000 4.0445 0.0000
# 2 31.7753 97.7411 50.9225 0.0000 -4.0445 0.0000
# 3 50.9225 50.9225 203.5626 0.0000 0.0000 0.0000
# 4 0.0000 0.0000 0.0000 37.5777 0.0000 -4.0445
# 5 4.0445 -4.0445 0.0000 0.0000 37.5777 0.0000
# 6 0.0000 0.0000 0.0000 -4.0445 0.0000 32.9829
#
#
#
# Elastic Compliance Matrix: (Units=1/GPa)
#
#
# Indices 1 2 3 4 5 6 
#
# 1 0.012487 -0.002875 -0.002404 0.000000 -0.001653 0.000000
# 2 -0.002875 0.012487 -0.002404 0.000000 0.001653 0.000000
# 3 -0.002404 -0.002404 0.006115 0.000000 0.000000 0.000000
# 4 0.000000 0.000000 0.000000 0.026967 0.000000 0.003307
# 5 -0.001653 0.001653 0.000000 0.000000 0.026967 0.000000
# 6 0.000000 0.000000 0.000000 0.003307 0.000000 0.030724
#
#
# Mechanical properties :
#
#
# Convention : Reuss Voigt Hill
#
# Bulk Modulus (GPa) = 63.60833 74.03173 68.82003
# Shear Modulus (GPa) = 36.66846 39.32264 37.99555
#
# Velocity S-wave (km/s) = 3.78744 3.92211 3.85536
# Velocity P-wave (km/s) = 6.63398 7.03362 6.83672
#
# Compressibility (1/GPa) = 0.01572121
#
# Stress axis : x y z
#
# Youngs Moduli (GPa) = 80.08370 80.08370 163.51976
#
# Poissons Ratio (x) = 0.23025 0.39317
# Poissons Ratio (y) = 0.23025 0.39317
# Poissons Ratio (z) = 0.19256 0.19256
#
# Static dielectric constant tensor:
#      x y z
#    x 2.243990 0.000000 0.000000 
#    y 0.000000 2.243990 0.000000 
#    z 0.000000 0.000000 2.011180 
# 
# From -- ./inp_files/306.got.cif
#   From: 2010.05.17/outbox.cif.g08.bks.cpg/sg159_cif.got.tgz:306.got - 2010.05.20 10:50:30.
