data_PCOD9577885
_publ_section_title
;
Structure prediction by ZEFSAII (Michael W. Deem and Ramdas Pophale) SiO2 
 PCOD9577885
Probable space group: P -3 1 M 
;
_chemical_formula_sum "Si O2"
_cell_formula_units_Z 58
_cell_length_a 15.203910
_cell_length_b 15.203910
_cell_length_c 13.309543
_cell_angle_alpha 90.000000
_cell_angle_beta 90.000000
_cell_angle_gamma 120.000000
_cell_volume 2664.430250
_symmetry_space_group_name_H-M "P -3 1 M "
_symmetry_group_IT_number 162
_symmetry_cell_setting 'hexagonal'
loop_
_space_group_symop_operation_xyz
x,y,z
-y,x-y,z
-x+y,-x,z
-y,-x,-z
-x+y,y,-z
x,x-y,-z
-x,-y,-z
y,-x+y,-z
x-y,x,-z
y,x,z
x-y,-y,z
-x,-x+y,z
loop_
_atom_site_type_symbol
_atom_site_label
_atom_site_fract_x
_atom_site_fract_y
_atom_site_fract_z
Si Si1 0.772745 0.649613 0.192166
Si Si2 0.239224 0.119612 0.000000
Si Si3 0.333334 0.666668 0.618051
Si Si4 0.535812 0.119791 0.107886
Si Si5 0.885662 0.420095 0.680807
Si Si6 0.883023 0.226091 0.602341
O O1 0.711726 0.711726 0.196221
O O2 0.692819 0.535451 0.157690
O O3 0.824077 0.660548 0.299142
O O4 0.851878 0.694812 0.100848
O O5 0.171061 0.171061 0.992713
O O6 0.333334 0.666667 0.500000
O O7 0.415550 0.780779 0.652719
O O8 0.606744 0.124726 0.200035
O O9 0.460034 0.000000 0.089379
O O10 0.582805 0.165610 0.000000
O O11 0.885259 0.332807 0.613850
O O12 0.000000 0.518839 0.669805
O O13 0.829220 0.170781 0.500000
O O14 0.000000 0.253845 0.603779
#
# Coordination Sequence:
#
# PCOD9577885 Si02
#       6
#    12   6   4  12  12  12
#     4  10  21  37  60  91 128 171 222 278 345 420
#     4  10  21  36  58  90 128 172 220 280 345 414
#     4  12  24  42  64  89 127 168 219 276 331 401
#     4   9  19  37  61  90 127 166 209 269 337 411
#     4  10  23  41  63  93 127 169 218 274 339 409
#     4  11  23  41  66  94 130 175 229 290 353 423
#
# _framework density 21.768256000000001
#
# number of rings (size 3 to 8) (size 9 to 14) (size 15 to 20)
#    0.000    1.862    0.000    3.207    2.897    0.414 
#    0.000    5.172    0.000    4.966    0.000    0.000 
#    0.000    0.000    0.000    0.621    0.000    0.207 
#
# Total GULP energy -323843.698366 kJ/mol
# GULP energy per Si atom -5583.512041 kJ/mol
# Density = 2.171871 g / cm^3
# Si number density = 21.768256 Si / 1000 Ang^3
#
#
#
# Elastic Constant Matrix: (Units=GPa)
#
#
# Indices 1 2 3 4 5 6 
#
# 1 77.2551 40.9960 60.5660 0.0000 0.3148 0.0006
# 2 40.9960 77.2558 60.5658 0.0002 -0.3148 0.0002
# 3 60.5660 60.5658 215.5187 0.0001 0.0000 -0.0001
# 4 0.0000 0.0002 0.0001 34.4051 0.0001 -0.3148
# 5 0.3148 -0.3148 0.0000 0.0001 34.4048 -0.0001
# 6 0.0006 0.0002 -0.0001 -0.3148 -0.0001 18.1294
#
#
#
# Elastic Compliance Matrix: (Units=1/GPa)
#
#
# Indices 1 2 3 4 5 6 
#
# 1 0.019729 -0.007854 -0.003337 0.000000 -0.000252 -0.000001
# 2 -0.007854 0.019729 -0.003337 0.000000 0.000252 0.000000
# 3 -0.003337 -0.003337 0.006516 0.000000 0.000000 0.000000
# 4 0.000000 0.000000 0.000000 0.029070 0.000000 0.000505
# 5 -0.000252 0.000252 0.000000 0.000000 0.029070 0.000000
# 6 -0.000001 0.000000 0.000000 0.000505 0.000000 0.055168
#
#
# Mechanical properties :
#
#
# Convention : Reuss Voigt Hill
#
# Bulk Modulus (GPa) = 59.11219 77.14279 68.12749
# Shear Modulus (GPa) = 25.77612 31.24800 28.51206
#
# Velocity S-wave (km/s) = 3.44483 3.79289 3.62304
# Velocity P-wave (km/s) = 6.56023 7.39571 6.99046
#
# Compressibility (1/GPa) = 0.01691699
#
# Stress axis : x y z
#
# Youngs Moduli (GPa) = 50.68600 50.68666 153.47757
#
# Poissons Ratio (x) = 0.39810 0.51219
# Poissons Ratio (y) = 0.39810 0.51217
# Poissons Ratio (z) = 0.16915 0.16915
#
# Static dielectric constant tensor:
#      x y z
#    x 1.831130 0.000000 0.000000 
#    y 0.000000 1.831120 0.000000 
#    z 0.000000 0.000000 1.792960 
# 
# From -- ./inp_files/2954.got.cif
#   From: 2010.05.17/outbox.cif.g08.bks.cpg/sg162_2_cif.got.tgz:2954.got - 2010.05.20 10:53:12.
