data_PCOD9577116
_publ_section_title
;
Structure prediction by ZEFSAII (Michael W. Deem and Ramdas Pophale) SiO2 
 PCOD9577116
Probable space group: R 3 2
;
_chemical_formula_sum "Si O2"
_cell_formula_units_Z 72
_cell_length_a 22.240751
_cell_length_b 22.240751
_cell_length_c 7.990722
_cell_angle_alpha 90.000000
_cell_angle_beta 90.000000
_cell_angle_gamma 120.000000
_cell_volume 3423.068178
_symmetry_space_group_name_H-M "R 3 2"
_symmetry_group_IT_number 155
_symmetry_cell_setting 'hexagonal'
loop_
_space_group_symop_operation_xyz
x,y,z
-y,x-y,z
-x+y,-x,z
x-y,-y,-z
-x,-x+y,-z
y,x,-z
2/3+x,1/3+y,1/3+z
2/3-y,1/3+x-y,1/3+z
2/3-x+y,1/3-x,1/3+z
2/3+x-y,1/3-y,1/3-z
2/3-x,1/3-x+y,1/3-z
2/3+y,1/3+x,1/3-z
1/3+x,2/3+y,2/3+z
1/3-y,2/3+x-y,2/3+z
1/3-x+y,2/3-x,2/3+z
1/3+x-y,2/3-y,2/3-z
1/3-x,2/3-x+y,2/3-z
1/3+y,2/3+x,2/3-z
loop_
_atom_site_type_symbol
_atom_site_label
_atom_site_fract_x
_atom_site_fract_y
_atom_site_fract_z
Si Si1 0.249247 0.191098 0.643214
Si Si2 0.915243 0.318297 0.507110
Si Si3 0.582067 0.512747 0.770143
Si Si4 0.666667 0.868013 0.833334
Si Si5 0.666667 0.112044 0.333334
O O1 0.226352 0.226352 0.500000
O O2 0.333334 0.237913 0.666667
O O3 0.234310 0.117439 0.568177
O O4 0.207742 0.183404 0.817357
O O5 0.889058 0.333334 0.333334
O O6 0.894652 0.342856 0.674883
O O7 0.900006 0.240276 0.495954
O O8 0.000000 0.365084 0.500000
O O9 0.532257 0.480811 0.606098
O O10 0.625462 0.890732 0.711991
#
# Coordination Sequence:
#
# PCOD9577116 Si02
#       5
#    18  18  18   9   9
#     4  12  25  36  59  87 123 173 238 284 345 415
#     4   9  18  34  59  86 127 178 232 279 346 418
#     4  11  21  38  58  93 125 182 242 286 347 432
#     4  12  22  36  64  84 124 176 242 284 346 428
#     4  12  24  38  54  84 120 170 232 292 346 408
#
# _framework density 21.033760999999998
#
# number of rings (size 3 to 8) (size 9 to 14) (size 15 to 20)
#    0.000    1.000    8.750    0.000    5.250    3.000 
#    0.000    0.000    0.000    0.000    0.000    0.000 
#    0.000    0.000    0.000   73.500    0.500    3.750 
#
# Total GULP energy -133856.813297 kJ/mol
# GULP energy per Si atom -5577.367221 kJ/mol
# Density = 2.098589 g / cm^3
# Si number density = 21.033761 Si / 1000 Ang^3
#
#
#
# Elastic Constant Matrix: (Units=GPa)
#
#
# Indices 1 2 3 4 5 6 
#
# 1 178.7090 -66.2247 31.0026 -48.2599 -0.1121 0.1622
# 2 -66.2247 178.7477 31.2025 48.2658 0.1088 -0.1629
# 3 31.0026 31.2025 205.6364 0.0449 -0.0204 0.0517
# 4 -48.2599 48.2658 0.0449 46.0339 0.0335 -0.0383
# 5 -0.1121 0.1088 -0.0204 0.0335 45.9881 -48.1631
# 6 0.1622 -0.1629 0.0517 -0.0383 -48.1631 122.2705
#
#
#
# Elastic Compliance Matrix: (Units=1/GPa)
#
#
# Indices 1 2 3 4 5 6 
#
# 1 0.008328 0.001372 -0.001465 0.007294 0.000008 -0.000003
# 2 0.001372 0.008328 -0.001469 -0.007293 -0.000006 0.000005
# 3 -0.001465 -0.001469 0.005307 -0.000001 0.000000 -0.000002
# 4 0.007294 -0.007293 -0.000001 0.037016 0.000000 -0.000008
# 5 0.000008 -0.000006 0.000000 0.000000 0.037015 0.014580
# 6 -0.000003 0.000005 -0.000002 -0.000008 0.014580 0.013922
#
#
# Mechanical properties :
#
#
# Convention : Reuss Voigt Hill
#
# Bulk Modulus (GPa) = 53.08438 61.67265 57.37852
# Shear Modulus (GPa) = 41.90433 80.66602 61.28518
#
# Velocity S-wave (km/s) = 4.46830 6.19952 5.40369
# Velocity P-wave (km/s) = 7.20509 8.97941 8.14074
#
# Compressibility (1/GPa) = 0.01883793
#
# Stress axis : x y z
#
# Youngs Moduli (GPa) = 120.07858 120.07311 188.43925
#
# Poissons Ratio (x) = -0.16471 0.27611
# Poissons Ratio (y) = -0.16471 0.27680
# Poissons Ratio (z) = 0.17595 0.17638
#
# Static dielectric constant tensor:
#      x y z
#    x 1.768540 0.000020 -0.000050 
#    y 0.000020 1.768550 0.000040 
#    z -0.000050 0.000040 1.986220 
# 
# From -- ./inp_files/2482.got.cif
#   From: 2010.05.17/outbox.cif.g08.bks.cpg/sg155_2_cif.got.tgz:2482.got - 2010.05.20 10:44:35.
