data_PCOD9577522
_publ_section_title
;
Structure prediction by ZEFSAII (Michael W. Deem and Ramdas Pophale) SiO2 
 PCOD9577522
Probable space group: R 3 C
;
_chemical_formula_sum "Si O2"
_cell_formula_units_Z 108
_cell_length_a 20.651136
_cell_length_b 20.651136
_cell_length_c 14.282711
_cell_angle_alpha 90.000000
_cell_angle_beta 90.000000
_cell_angle_gamma 120.000000
_cell_volume 5275.081501
_symmetry_space_group_name_H-M "R 3 C"
_symmetry_group_IT_number 161
_symmetry_cell_setting 'hexagonal'
loop_
_space_group_symop_operation_xyz
x,y,z
-y,x-y,z
-x+y,-x,z
-x+y,y,1/2+z
x,x-y,1/2+z
-y,-x,1/2+z
2/3+x,1/3+y,1/3+z
2/3-y,1/3+x-y,1/3+z
2/3-x+y,1/3-x,1/3+z
2/3-x+y,1/3+y,5/6+z
2/3+x,1/3+x-y,5/6+z
2/3-y,1/3-x,5/6+z
1/3+x,2/3+y,2/3+z
1/3-y,2/3+x-y,2/3+z
1/3-x+y,2/3-x,2/3+z
1/3-x+y,2/3+y,1/6+z
1/3+x,2/3+x-y,1/6+z
1/3-y,2/3-x,1/6+z
loop_
_atom_site_type_symbol
_atom_site_label
_atom_site_fract_x
_atom_site_fract_y
_atom_site_fract_z
Si Si1 0.817967 0.767618 0.742750
Si Si2 0.235841 0.279861 0.934936
Si Si3 0.265051 0.110900 0.421811
Si Si4 0.601907 0.474256 0.443542
Si Si5 0.259000 0.308828 0.350133
Si Si6 0.088257 0.244684 0.033044
O O1 0.769102 0.681971 0.703406
O O2 0.848201 0.753399 0.840121
O O3 0.889038 0.817313 0.679980
O O4 0.755943 0.788740 0.772306
O O5 0.307149 0.326554 0.005115
O O6 0.156288 0.240503 0.985780
O O7 0.242406 0.214116 0.888266
O O8 0.226149 0.114717 0.514924
O O9 0.353532 0.150971 0.437379
O O10 0.598430 0.545109 0.488420
O O11 0.687782 0.506613 0.414762
O O12 0.219719 0.276446 0.449935
#
# Coordination Sequence:
#
# PCOD9577522 Si02
#       6
#    18  18  18  18  18  18
#     4   9  21  34  52  85 113 153 194 231 295 352
#     4   9  20  33  56  83 122 143 197 239 295 350
#     4  11  21  34  55  86 118 153 194 234 295 354
#     4  12  21  34  63  81 121 162 185 245 305 348
#     4  10  18  37  55  81 121 145 192 242 283 355
#     4  11  19  38  53  82 117 156 190 239 291 351
#
# _framework density 20.473617999999998
#
# number of rings (size 3 to 8) (size 9 to 14) (size 15 to 20)
#    1.000    0.667    6.667    0.000    0.000    6.667 
#    0.000    0.000    0.000    0.667    0.000    0.000 
#    0.000    0.000    0.000    0.000    0.000    0.000 
#
# Total GULP energy -200440.360255 kJ/mol
# GULP energy per Si atom -5567.787785 kJ/mol
# Density = 2.042702 g / cm^3
# Si number density = 20.473618 Si / 1000 Ang^3
#
#
#
# Elastic Constant Matrix: (Units=GPa)
#
#
# Indices 1 2 3 4 5 6 
#
# 1 45.3009 -5.1136 -2.2156 -5.9503 0.0000 0.0000
# 2 -5.1136 45.3009 -2.2156 5.9503 0.0000 0.0000
# 3 -2.2156 -2.2156 43.8883 0.0000 0.0000 0.0000
# 4 -5.9503 5.9503 0.0000 20.6699 0.0000 0.0000
# 5 0.0000 0.0000 0.0000 0.0000 20.6699 -5.9503
# 6 0.0000 0.0000 0.0000 0.0000 -5.9503 25.2073
#
#
#
# Elastic Compliance Matrix: (Units=1/GPa)
#
#
# Indices 1 2 3 4 5 6 
#
# 1 0.023152 0.001871 0.001263 0.006126 0.000000 0.000000
# 2 0.001871 0.023152 0.001263 -0.006126 0.000000 0.000000
# 3 0.001263 0.001263 0.022913 0.000000 0.000000 0.000000
# 4 0.006126 -0.006126 0.000000 0.051907 0.000000 0.000000
# 5 0.000000 0.000000 0.000000 0.000000 0.051907 0.012253
# 6 0.000000 0.000000 0.000000 0.000000 0.012253 0.042563
#
#
# Mechanical properties :
#
#
# Convention : Reuss Voigt Hill
#
# Bulk Modulus (GPa) = 12.81867 12.82226 12.82047
# Shear Modulus (GPa) = 21.47730 22.91174 22.19452
#
# Velocity S-wave (km/s) = 3.24238 3.34890 3.29607
# Velocity P-wave (km/s) = 4.50466 4.60760 4.55642
#
# Compressibility (1/GPa) = 0.07801119
#
# Stress axis : x y z
#
# Youngs Moduli (GPa) = 43.19233 43.19233 43.64398
#
# Poissons Ratio (x) = -0.08079 -0.05513
# Poissons Ratio (y) = -0.08079 -0.05513
# Poissons Ratio (z) = -0.05456 -0.05456
#
# Static dielectric constant tensor:
#      x y z
#    x 1.769560 0.000000 0.000000 
#    y 0.000000 1.769560 0.000000 
#    z 0.000000 0.000000 1.760300 
# 
# From -- ./inp_files/939.got.cif
#   From: 2010.05.17/outbox.cif.g08.bks.cpg/sg161_cif.got.tgz:939.got - 2010.05.20 10:52:32.
