data_PCOD9577134
_publ_section_title
;
Structure prediction by ZEFSAII (Michael W. Deem and Ramdas Pophale) SiO2 
 PCOD9577134
Probable space group: R 3 2
;
_chemical_formula_sum "Si O2"
_cell_formula_units_Z 144
_cell_length_a 30.811262
_cell_length_b 30.811262
_cell_length_c 8.749473
_cell_angle_alpha 90.000000
_cell_angle_beta 90.000000
_cell_angle_gamma 120.000000
_cell_volume 7193.355119
_symmetry_space_group_name_H-M "R 3 2"
_symmetry_group_IT_number 155
_symmetry_cell_setting 'hexagonal'
loop_
_space_group_symop_operation_xyz
x,y,z
-y,x-y,z
-x+y,-x,z
x-y,-y,-z
-x,-x+y,-z
y,x,-z
2/3+x,1/3+y,1/3+z
2/3-y,1/3+x-y,1/3+z
2/3-x+y,1/3-x,1/3+z
2/3+x-y,1/3-y,1/3-z
2/3-x,1/3-x+y,1/3-z
2/3+y,1/3+x,1/3-z
1/3+x,2/3+y,2/3+z
1/3-y,2/3+x-y,2/3+z
1/3-x+y,2/3-x,2/3+z
1/3+x-y,2/3-y,2/3-z
1/3-x,2/3-x+y,2/3-z
1/3+y,2/3+x,2/3-z
loop_
_atom_site_type_symbol
_atom_site_label
_atom_site_fract_x
_atom_site_fract_y
_atom_site_fract_z
Si Si1 0.570833 0.940887 0.023439
Si Si2 0.148313 0.945537 0.440373
Si Si3 0.054152 0.945406 0.935292
Si Si4 0.696691 0.148743 0.182544
Si Si5 0.705063 0.859075 0.956596
Si Si6 0.295343 0.155287 0.542500
Si Si7 0.945715 0.149559 0.928190
Si Si8 0.095961 0.141027 0.617732
O O1 0.589149 0.922483 0.166667
O O2 0.515430 0.932787 0.055685
O O3 0.568974 0.906764 0.884160
O O4 0.606092 0.000000 0.000000
O O5 0.157751 0.901269 0.497686
O O6 0.146521 0.946797 0.255733
O O7 0.095055 0.929237 0.517282
O O8 0.188183 0.000000 0.500000
O O9 0.051653 0.942438 0.752308
O O10 0.096381 0.933258 0.996826
O O11 0.000000 0.908370 0.000000
O O12 0.071457 0.000000 0.000000
O O13 0.666667 0.148945 0.333334
O O14 0.752043 0.159494 0.224665
O O15 0.702664 0.188577 0.050845
O O16 0.666667 0.820979 0.833334
O O17 0.666027 0.858169 0.080271
O O18 0.741929 0.841402 0.025235
O O19 0.333334 0.155936 0.666667
O O20 0.000000 0.188649 0.000000
O O21 0.112202 0.112202 0.500000
#
# Coordination Sequence:
#
# PCOD9577134 Si02
#       8
#    18  18  18  18  18  18  18  18
#     4  11  24  41  62  92 141 186 240 294 354 414
#     4  12  25  43  71 101 138 178 231 289 352 423
#     4  11  23  43  68  98 139 184 231 282 350 420
#     4  12  25  42  67 100 138 190 236 296 354 418
#     4  12  25  42  71 102 140 183 244 290 352 426
#     4  11  23  43  65  97 132 183 226 287 351 418
#     4  11  25  45  70 102 137 177 228 291 361 421
#     4  12  25  40  68 104 140 180 233 290 345 420
#
# _framework density 20.018476
#
# number of rings (size 3 to 8) (size 9 to 14) (size 15 to 20)
#    0.000    0.500    2.500    7.625    3.500    2.000 
#    0.000    0.000    0.000    1.750    0.000    0.000 
#    0.000    0.000    0.000    0.000    0.000    0.000 
#
# Total GULP energy -268376.182787 kJ/mol
# GULP energy per Si atom -5591.170475 kJ/mol
# Density = 1.997291 g / cm^3
# Si number density = 20.018476 Si / 1000 Ang^3
#
#
#
# Elastic Constant Matrix: (Units=GPa)
#
#
# Indices 1 2 3 4 5 6 
#
# 1 101.7586 75.5260 53.6769 -4.5305 -0.0097 0.0479
# 2 75.5260 101.7638 53.6133 4.5432 -0.0485 -0.0145
# 3 53.6769 53.6133 145.6805 0.0496 -0.1042 0.0666
# 4 -4.5305 4.5432 0.0496 37.0105 0.0378 0.0122
# 5 -0.0097 -0.0485 -0.1042 0.0378 36.9610 -4.5253
# 6 0.0479 -0.0145 0.0666 0.0122 -4.5253 13.1297
#
#
#
# Elastic Compliance Matrix: (Units=1/GPa)
#
#
# Indices 1 2 3 4 5 6 
#
# 1 0.023540 -0.016273 -0.002686 0.004883 -0.000041 -0.000109
# 2 -0.016273 0.023523 -0.002659 -0.004876 0.000038 0.000117
# 3 -0.002686 -0.002659 0.008833 -0.000014 0.000017 -0.000032
# 4 0.004883 -0.004876 -0.000014 0.028216 -0.000042 -0.000064
# 5 -0.000041 0.000038 0.000017 -0.000042 0.028248 0.009736
# 6 -0.000109 0.000117 -0.000032 -0.000064 0.009736 0.079520
#
#
# Mechanical properties :
#
#
# Convention : Reuss Voigt Hill
#
# Bulk Modulus (GPa) = 79.00122 79.42616 79.21369
# Shear Modulus (GPa) = 20.89120 28.51267 24.70193
#
# Velocity S-wave (km/s) = 3.23398 3.77811 3.51658
# Velocity P-wave (km/s) = 7.31400 7.66777 7.49297
#
# Compressibility (1/GPa) = 0.01265803
#
# Stress axis : x y z
#
# Youngs Moduli (GPa) = 42.48138 42.51161 113.21519
#
# Poissons Ratio (x) = 0.69181 0.30411
# Poissons Ratio (y) = 0.69131 0.30107
# Poissons Ratio (z) = 0.11411 0.11305
#
# Static dielectric constant tensor:
#      x y z
#    x 1.706180 -0.000010 -0.000120 
#    y -0.000010 1.706170 0.000160 
#    z -0.000120 0.000160 1.717980 
# 
# From -- ./inp_files/3076.got.cif
#   From: 2010.05.17/outbox.cif.g08.bks.cpg/sg155_2_cif.got.tgz:3076.got - 2010.05.20 10:44:35.
