data_PCOD9577346
_publ_section_title
;
Structure prediction by ZEFSAII (Michael W. Deem and Ramdas Pophale) SiO2 
 PCOD9577346
Probable space group: P 3 1 C
;
_chemical_formula_sum "Si O2"
_cell_formula_units_Z 36
_cell_length_a 15.676870
_cell_length_b 15.676870
_cell_length_c 8.950020
_cell_angle_alpha 90.000000
_cell_angle_beta 90.000000
_cell_angle_gamma 120.000000
_cell_volume 1904.905130
_symmetry_space_group_name_H-M "P 3 1 C"
_symmetry_group_IT_number 159
_symmetry_cell_setting 'hexagonal'
loop_
_space_group_symop_operation_xyz
x,y,z
-y,x-y,z
-x+y,-x,z
y,x,1/2+z
x-y,-y,1/2+z
-x,-x+y,1/2+z
loop_
_atom_site_type_symbol
_atom_site_label
_atom_site_fract_x
_atom_site_fract_y
_atom_site_fract_z
Si Si1 0.016416 0.778620 0.587000
Si Si2 0.812986 0.544158 0.171279
Si Si3 0.873274 0.959138 0.330714
Si Si4 0.519601 0.468295 0.737379
Si Si5 0.565851 0.904016 0.956635
Si Si6 0.484031 0.603527 0.540340
O O1 0.057338 0.875442 0.485844
O O2 0.948313 0.680323 0.493207
O O3 0.104103 0.762353 0.646622
O O4 0.951989 0.795726 0.709499
O O5 0.810056 0.525264 0.349177
O O6 0.710043 0.518977 0.103595
O O7 0.845057 0.473621 0.087214
O O8 0.967735 0.071112 0.319490
O O9 0.426820 0.444614 0.847621
O O10 0.487287 0.381725 0.615059
O O11 0.543200 0.560198 0.630943
O O12 0.601447 0.489784 0.861020
#
# Coordination Sequence:
#
# PCOD9577346 Si02
#       6
#     6   6   6   6   6   6
#     4  12  18  37  64  87 114 166 221 246 314 403
#     4  11  22  37  64  91 121 164 209 263 324 387
#     4  10  23  38  55  85 127 165 199 273 325 371
#     4   9  17  37  60  80 124 155 201 256 312 369
#     4  10  17  34  65  90 105 162 221 251 293 396
#     4  10  21  39  60  89 123 160 203 263 320 366
#
# _framework density 18.898579000000002
#
# number of rings (size 3 to 8) (size 9 to 14) (size 15 to 20)
#    0.333    1.333    6.667    1.333    0.000    0.000 
#    3.000    5.000    0.000    0.000    0.000    0.000 
#    0.000    0.000    0.000    0.000    0.000    0.000 
#
# Total GULP energy -200446.014436 kJ/mol
# GULP energy per Si atom -5567.944845 kJ/mol
# Density = 1.885557 g / cm^3
# Si number density = 18.898579 Si / 1000 Ang^3
#
#
#
# Elastic Constant Matrix: (Units=GPa)
#
#
# Indices 1 2 3 4 5 6 
#
# 1 42.7390 22.4621 32.5696 0.0000 -1.1087 0.0000
# 2 22.4621 42.7390 32.5696 0.0000 1.1087 0.0000
# 3 32.5696 32.5696 153.0736 0.0000 0.0000 0.0000
# 4 0.0000 0.0000 0.0000 27.4661 0.0000 1.1087
# 5 -1.1087 1.1087 0.0000 0.0000 27.4661 0.0000
# 6 0.0000 0.0000 0.0000 1.1087 0.0000 10.1384
#
#
#
# Elastic Compliance Matrix: (Units=1/GPa)
#
#
# Indices 1 2 3 4 5 6 
#
# 1 0.034507 -0.015029 -0.004144 0.000000 0.002000 0.000000
# 2 -0.015029 0.034507 -0.004144 0.000000 -0.002000 0.000000
# 3 -0.004144 -0.004144 0.008296 0.000000 0.000000 0.000000
# 4 0.000000 0.000000 0.000000 0.036570 0.000000 -0.003999
# 5 0.002000 -0.002000 0.000000 0.000000 0.036570 0.000000
# 6 0.000000 0.000000 0.000000 -0.003999 0.000000 0.099072
#
#
# Mechanical properties :
#
#
# Convention : Reuss Voigt Hill
#
# Bulk Modulus (GPa) = 32.60057 45.97271 39.28664
# Shear Modulus (GPa) = 16.31951 23.07746 19.69849
#
# Velocity S-wave (km/s) = 2.94178 3.49825 3.23201
# Velocity P-wave (km/s) = 5.36903 6.37933 5.89586
#
# Compressibility (1/GPa) = 0.03067431
#
# Stress axis : x y z
#
# Youngs Moduli (GPa) = 28.97989 28.97989 120.53492
#
# Poissons Ratio (x) = 0.43555 0.49953
# Poissons Ratio (y) = 0.43555 0.49953
# Poissons Ratio (z) = 0.12010 0.12010
#
# Static dielectric constant tensor:
#      x y z
#    x 1.665570 0.000000 0.000000 
#    y 0.000000 1.665570 0.000000 
#    z 0.000000 0.000000 1.727660 
# 
# From -- ./inp_files/420.got.cif
#   From: 2010.05.17/outbox.cif.g08.bks.cpg/sg159_cif.got.tgz:420.got - 2010.05.20 10:50:30.
