data_PCOD9577769
_publ_section_title
;
Structure prediction by ZEFSAII (Michael W. Deem and Ramdas Pophale) SiO2 
 PCOD9577769
Probable space group: P -3 1 M 
;
_chemical_formula_sum "Si O2"
_cell_formula_units_Z 42
_cell_length_a 18.231197
_cell_length_b 18.231197
_cell_length_c 7.756597
_cell_angle_alpha 90.000000
_cell_angle_beta 90.000000
_cell_angle_gamma 120.000000
_cell_volume 2232.709537
_symmetry_space_group_name_H-M "P -3 1 M "
_symmetry_group_IT_number 162
_symmetry_cell_setting 'hexagonal'
loop_
_space_group_symop_operation_xyz
x,y,z
-y,x-y,z
-x+y,-x,z
-y,-x,-z
-x+y,y,-z
x,x-y,-z
-x,-y,-z
y,-x+y,-z
x-y,x,-z
y,x,z
x-y,-y,z
-x,-x+y,z
loop_
_atom_site_type_symbol
_atom_site_label
_atom_site_fract_x
_atom_site_fract_y
_atom_site_fract_z
Si Si1 0.517136 0.258568 0.500000
Si Si2 0.901460 0.266743 0.011426
Si Si3 0.640235 0.192547 0.825493
Si Si4 0.907324 0.543103 0.333358
O O1 0.563132 0.302048 0.679942
O O2 0.462830 0.302794 0.468119
O O3 0.907256 0.307243 0.823690
O O4 0.000000 0.301310 0.065129
O O5 0.834143 0.165858 0.000000
O O6 0.854428 0.307933 0.119433
O O7 0.551403 0.126531 0.737374
O O8 0.609921 0.219842 0.000000
O O9 0.000000 0.582064 0.405991
#
# Coordination Sequence:
#
# PCOD9577769 Si02
#       4
#     6  12  12  12
#     4  12  22  38  58  86 116 156 208 256 304 348
#     4  10  19  38  62  86 113 151 200 249 302 363
#     4  10  22  39  59  83 115 160 205 246 302 355
#     4  10  22  40  58  81 117 157 202 248 301 358
#
# _framework density 18.811223999999999
#
# number of rings (size 3 to 8) (size 9 to 14) (size 15 to 20)
#    0.000    1.714    2.857    1.714    0.000    6.857 
#    6.857    1.429    0.000    0.286    0.000    0.000 
#    0.000    0.000    0.000    9.143    0.000    0.000 
#
# Total GULP energy -234344.294996 kJ/mol
# GULP energy per Si atom -5579.626071 kJ/mol
# Density = 1.876841 g / cm^3
# Si number density = 18.811224 Si / 1000 Ang^3
#
#
#
# Elastic Constant Matrix: (Units=GPa)
#
#
# Indices 1 2 3 4 5 6 
#
# 1 120.3884 79.7546 37.5988 -0.0001 4.0588 0.0000
# 2 79.7546 120.3884 37.5988 0.0001 -4.0588 0.0000
# 3 37.5988 37.5988 102.4892 0.0000 0.0000 0.0000
# 4 -0.0001 0.0001 0.0000 20.0614 0.0000 -4.0588
# 5 4.0588 -4.0588 0.0000 0.0000 20.0614 -0.0001
# 6 0.0000 0.0000 0.0000 -4.0588 -0.0001 20.3169
#
#
#
# Elastic Compliance Matrix: (Units=1/GPa)
#
#
# Indices 1 2 3 4 5 6 
#
# 1 0.015721 -0.009926 -0.002126 0.000000 -0.005189 0.000000
# 2 -0.009926 0.015721 -0.002126 0.000000 0.005189 0.000000
# 3 -0.002126 -0.002126 0.011317 0.000000 0.000000 0.000000
# 4 0.000000 0.000000 0.000000 0.051947 0.000000 0.010378
# 5 -0.005189 0.005189 0.000000 0.000000 0.051947 0.000000
# 6 0.000000 0.000000 0.000000 0.010378 0.000000 0.051293
#
#
# Mechanical properties :
#
#
# Convention : Reuss Voigt Hill
#
# Bulk Modulus (GPa) = 69.42811 72.57449 71.00130
# Shear Modulus (GPa) = 21.63546 24.64218 23.13882
#
# Velocity S-wave (km/s) = 3.39504 3.62328 3.51102
# Velocity P-wave (km/s) = 7.23577 7.49456 7.36630
#
# Compressibility (1/GPa) = 0.01440339
#
# Stress axis : x y z
#
# Youngs Moduli (GPa) = 63.60942 63.60942 88.36259
#
# Poissons Ratio (x) = 0.63137 0.18786
# Poissons Ratio (y) = 0.63137 0.18786
# Poissons Ratio (z) = 0.13523 0.13523
#
# Static dielectric constant tensor:
#      x y z
#    x 1.682380 0.000000 0.000000 
#    y 0.000000 1.682380 0.000000 
#    z 0.000000 0.000000 1.745710 
# 
# From -- ./inp_files/1097.got.cif
#   From: 2010.05.17/outbox.cif.g08.bks.cpg/sg162_1_cif.got.tgz:1097.got - 2010.05.20 10:53:12.
