data_PCOD9577747
_publ_section_title
;
Structure prediction by ZEFSAII (Michael W. Deem and Ramdas Pophale) SiO2 
 PCOD9577747
Probable space group: P -3 1 M 
;
_chemical_formula_sum "Si O2"
_cell_formula_units_Z 60
_cell_length_a 13.951468
_cell_length_b 13.951468
_cell_length_c 18.642562
_cell_angle_alpha 90.000000
_cell_angle_beta 90.000000
_cell_angle_gamma 120.000000
_cell_volume 3142.505471
_symmetry_space_group_name_H-M "P -3 1 M "
_symmetry_group_IT_number 162
_symmetry_cell_setting 'hexagonal'
loop_
_space_group_symop_operation_xyz
x,y,z
-y,x-y,z
-x+y,-x,z
-y,-x,-z
-x+y,y,-z
x,x-y,-z
-x,-y,-z
y,-x+y,-z
x-y,x,-z
y,x,z
x-y,-y,z
-x,-x+y,z
loop_
_atom_site_type_symbol
_atom_site_label
_atom_site_fract_x
_atom_site_fract_y
_atom_site_fract_z
Si Si1 0.789831 0.127793 0.687768
Si Si2 0.716730 0.590908 0.560991
Si Si3 0.867687 0.330092 0.962944
Si Si4 0.133261 0.441865 0.797985
Si Si5 0.565084 0.435497 0.333629
O O1 0.873086 0.205532 0.626454
O O2 0.827539 0.187959 0.764610
O O3 0.679782 0.133047 0.667773
O O4 0.756516 0.000000 0.687692
O O5 0.794976 0.589951 0.500000
O O6 0.641220 0.641220 0.533853
O O7 0.641222 0.469996 0.596700
O O8 0.834478 0.315042 0.879042
O O9 0.000000 0.374850 0.968533
O O10 0.786928 0.213073 0.000000
O O11 0.850434 0.425217 0.000000
O O12 0.173805 0.540830 0.739911
O O13 0.000000 0.376043 0.798143
O O14 0.473602 0.473602 0.334620
#
# Coordination Sequence:
#
# PCOD9577747 Si02
#       5
#    12  12  12  12  12
#     4  10  19  33  57  81 104 142 182 217 270 328
#     4  10  20  36  55  76 107 140 175 221 271 322
#     4  10  22  38  57  85 119 155 194 239 293 348
#     4   9  19  36  54  76 112 143 175 225 271 323
#     4   8  17  33  51  75 103 135 174 217 263 315
#
# _framework density 19.093046999999999
#
# number of rings (size 3 to 8) (size 9 to 14) (size 15 to 20)
#    0.000    2.600    0.000    2.600    2.800    1.600 
#    9.600    3.000    0.000    7.800    0.000    0.000 
#    0.000    0.000    0.000    0.000    0.000    0.000 
#
# Total GULP energy -334475.597982 kJ/mol
# GULP energy per Si atom -5574.593300 kJ/mol
# Density = 1.904959 g / cm^3
# Si number density = 19.093047 Si / 1000 Ang^3
#
#
#
# Elastic Constant Matrix: (Units=GPa)
#
#
# Indices 1 2 3 4 5 6 
#
# 1 56.0835 8.4091 34.6146 0.0001 1.5213 0.0000
# 2 8.4091 56.0835 34.6146 -0.0001 -1.5213 0.0000
# 3 34.6146 34.6146 130.3926 0.0000 0.0000 0.0000
# 4 0.0001 -0.0001 0.0000 23.7700 0.0000 -1.5213
# 5 1.5213 -1.5213 0.0000 0.0000 23.7700 0.0001
# 6 0.0000 0.0000 0.0000 -1.5213 0.0001 23.8372
#
#
#
# Elastic Compliance Matrix: (Units=1/GPa)
#
#
# Indices 1 2 3 4 5 6 
#
# 1 0.021373 0.000312 -0.005757 0.000000 -0.001348 0.000000
# 2 0.000312 0.021373 -0.005757 0.000000 0.001348 0.000000
# 3 -0.005757 -0.005757 0.010726 0.000000 0.000000 0.000000
# 4 0.000000 0.000000 0.000000 0.042242 0.000000 0.002696
# 5 -0.001348 0.001348 0.000000 0.000000 0.042242 0.000000
# 6 0.000000 0.000000 0.000000 0.002696 0.000000 0.042123
#
#
# Mechanical properties :
#
#
# Convention : Reuss Voigt Hill
#
# Bulk Modulus (GPa) = 32.18625 44.20405 38.19515
# Shear Modulus (GPa) = 23.49186 25.27019 24.38102
#
# Velocity S-wave (km/s) = 3.51149 3.64198 3.57733
# Velocity P-wave (km/s) = 5.77364 6.39434 6.09190
#
# Compressibility (1/GPa) = 0.03106916
#
# Stress axis : x y z
#
# Youngs Moduli (GPa) = 46.78718 46.78718 93.23571
#
# Poissons Ratio (x) = -0.01458 0.53672
# Poissons Ratio (y) = -0.01458 0.53672
# Poissons Ratio (z) = 0.26934 0.26934
#
# Static dielectric constant tensor:
#      x y z
#    x 1.689510 0.000000 0.000000 
#    y 0.000000 1.689510 0.000000 
#    z 0.000000 0.000000 1.697490 
# 
# From -- ./inp_files/3790.got.cif
#   From: 2010.05.17/outbox.cif.g08.bks.cpg/sg162_2_cif.got.tgz:3790.got - 2010.05.20 10:53:12.
