data_PCOD9577530
_publ_section_title
;
Structure prediction by ZEFSAII (Michael W. Deem and Ramdas Pophale) SiO2 
 PCOD9577530
Probable space group: R 3 C
;
_chemical_formula_sum "Si O2"
_cell_formula_units_Z 144
_cell_length_a 20.746319
_cell_length_b 20.746319
_cell_length_c 19.788411
_cell_angle_alpha 90.000000
_cell_angle_beta 90.000000
_cell_angle_gamma 120.000000
_cell_volume 7376.046680
_symmetry_space_group_name_H-M "R 3 C"
_symmetry_group_IT_number 161
_symmetry_cell_setting 'hexagonal'
loop_
_space_group_symop_operation_xyz
x,y,z
-y,x-y,z
-x+y,-x,z
-x+y,y,1/2+z
x,x-y,1/2+z
-y,-x,1/2+z
2/3+x,1/3+y,1/3+z
2/3-y,1/3+x-y,1/3+z
2/3-x+y,1/3-x,1/3+z
2/3-x+y,1/3+y,5/6+z
2/3+x,1/3+x-y,5/6+z
2/3-y,1/3-x,5/6+z
1/3+x,2/3+y,2/3+z
1/3-y,2/3+x-y,2/3+z
1/3-x+y,2/3-x,2/3+z
1/3-x+y,2/3+y,1/6+z
1/3+x,2/3+x-y,1/6+z
1/3-y,2/3-x,1/6+z
loop_
_atom_site_type_symbol
_atom_site_label
_atom_site_fract_x
_atom_site_fract_y
_atom_site_fract_z
Si Si1 0.887487 0.585453 0.666186
Si Si2 0.875364 0.109944 0.367901
Si Si3 0.847413 0.245957 0.917528
Si Si4 0.917743 0.535261 0.318214
Si Si5 0.301683 0.911229 0.936484
Si Si6 0.699621 0.582389 0.465236
Si Si7 0.081139 0.698171 0.857930
Si Si8 0.965641 0.472125 0.442227
O O1 0.855282 0.500622 0.689301
O O2 0.926902 0.645176 0.727484
O O3 0.940116 0.588797 0.604028
O O4 0.839357 0.617652 0.630896
O O5 0.809509 0.123635 0.395286
O O6 0.935527 0.141624 0.427908
O O7 0.913479 0.166842 0.305747
O O8 0.870289 0.306129 0.857986
O O9 0.760167 0.195318 0.933997
O O10 0.890473 0.291588 0.984108
O O11 0.950634 0.502935 0.374256
O O12 0.995824 0.599167 0.287608
O O13 0.351113 0.902001 0.878643
O O14 0.355497 0.971017 0.991281
O O15 0.617024 0.536998 0.435723
O O16 0.161422 0.765170 0.834521
#
# Coordination Sequence:
#
# PCOD9577530 Si02
#       8
#    18  18  18  18  18  18  18  18
#     4  11  21  36  54  86 124 162 198 251 313 363
#     4  11  23  34  56  88 130 160 203 250 317 379
#     4  10  20  38  59  85 116 169 204 249 321 373
#     4  10  21  40  59  89 124 167 207 257 314 380
#     4  11  23  35  55  88 124 163 200 254 307 381
#     4  10  19  36  55  85 122 153 204 252 307 370
#     4  11  22  37  59  84 125 164 207 256 313 381
#     4  10  21  36  61  87 121 162 205 255 312 377
#
# _framework density 19.522652999999998
#
# number of rings (size 3 to 8) (size 9 to 14) (size 15 to 20)
#    0.000    1.500    3.750    3.750    8.750    0.000 
#    0.000    0.000    0.000    4.000    0.000    0.000 
#    1.250    0.000    0.000    0.000    0.000    0.000 
#
# Total GULP energy -267660.412626 kJ/mol
# GULP energy per Si atom -5576.258596 kJ/mol
# Density = 1.947822 g / cm^3
# Si number density = 19.522653 Si / 1000 Ang^3
#
#
#
# Elastic Constant Matrix: (Units=GPa)
#
#
# Indices 1 2 3 4 5 6 
#
# 1 76.0086 25.9029 10.8741 -1.3153 0.0000 0.0000
# 2 25.9029 76.0086 10.8741 1.3153 0.0000 0.0000
# 3 10.8741 10.8741 72.7150 0.0000 0.0000 0.0000
# 4 -1.3153 1.3153 0.0000 29.3356 0.0000 0.0000
# 5 0.0000 0.0000 0.0000 0.0000 29.3356 -1.3153
# 6 0.0000 0.0000 0.0000 0.0000 -1.3153 25.0528
#
#
#
# Elastic Compliance Matrix: (Units=1/GPa)
#
#
# Indices 1 2 3 4 5 6 
#
# 1 0.015070 -0.004934 -0.001516 0.000897 0.000000 0.000000
# 2 -0.004934 0.015070 -0.001516 -0.000897 0.000000 0.000000
# 3 -0.001516 -0.001516 0.014206 0.000000 0.000000 0.000000
# 4 0.000897 -0.000897 0.000000 0.034169 0.000000 0.000000
# 5 0.000000 0.000000 0.000000 0.000000 0.034169 0.001794
# 6 0.000000 0.000000 0.000000 0.000000 0.001794 0.040010
#
#
# Mechanical properties :
#
#
# Convention : Reuss Voigt Hill
#
# Bulk Modulus (GPa) = 35.19339 35.55937 35.37638
# Shear Modulus (GPa) = 28.07453 28.55019 28.31236
#
# Velocity S-wave (km/s) = 3.79628 3.82830 3.81232
# Velocity P-wave (km/s) = 6.10587 6.14777 6.12686
#
# Compressibility (1/GPa) = 0.02841443
#
# Stress axis : x y z
#
# Youngs Moduli (GPa) = 66.35520 66.35520 70.39441
#
# Poissons Ratio (x) = 0.32743 0.10670
# Poissons Ratio (y) = 0.32743 0.10670
# Poissons Ratio (z) = 0.10058 0.10058
#
# Static dielectric constant tensor:
#      x y z
#    x 1.718350 0.000000 0.000000 
#    y 0.000000 1.718350 0.000000 
#    z 0.000000 0.000000 1.751650 
# 
# From -- ./inp_files/1753.got.cif
#   From: 2010.05.17/outbox.cif.g08.bks.cpg/sg161_cif.got.tgz:1753.got - 2010.05.20 10:52:32.
