data_PCOD9577939
_publ_section_title
;
Structure prediction by ZEFSAII (Michael W. Deem and Ramdas Pophale) SiO2 
 PCOD9577939
Probable space group: P -3 1 M 
;
_chemical_formula_sum "Si O2"
_cell_formula_units_Z 48
_cell_length_a 17.206302
_cell_length_b 17.206302
_cell_length_c 9.157366
_cell_angle_alpha 90.000000
_cell_angle_beta 90.000000
_cell_angle_gamma 120.000000
_cell_volume 2347.882109
_symmetry_space_group_name_H-M "P -3 1 M "
_symmetry_group_IT_number 162
_symmetry_cell_setting 'hexagonal'
loop_
_space_group_symop_operation_xyz
x,y,z
-y,x-y,z
-x+y,-x,z
-y,-x,-z
-x+y,y,-z
x,x-y,-z
-x,-y,-z
y,-x+y,-z
x-y,x,-z
y,x,z
x-y,-y,z
-x,-x+y,z
loop_
_atom_site_type_symbol
_atom_site_label
_atom_site_fract_x
_atom_site_fract_y
_atom_site_fract_z
Si Si1 0.236063 0.334127 0.107133
Si Si2 0.817297 0.714637 0.342614
Si Si3 0.156830 0.483998 0.344210
Si Si4 0.655962 0.500102 0.686753
O O1 0.282955 0.282955 0.035981
O O2 0.160999 0.269557 0.223604
O O3 0.308492 0.416972 0.203828
O O4 0.181729 0.363457 0.000000
O O5 0.850513 0.701025 0.500000
O O6 0.789261 0.789261 0.350440
O O7 0.730296 0.619201 0.297873
O O8 0.263566 0.523347 0.319171
O O9 0.137173 0.557380 0.274173
O O10 0.131315 0.477621 0.515910
#
# Coordination Sequence:
#
# PCOD9577939 Si02
#       4
#    12  12  12  12
#     4  11  23  41  61  84 114 156 200 244 305 366
#     4  11  21  37  59  85 116 151 195 248 306 359
#     4   9  16  31  55  89 122 158 198 241 284 335
#     4   9  17  31  55  87 123 160 199 238 281 336
#
# _framework density 20.443956
#
# number of rings (size 3 to 8) (size 9 to 14) (size 15 to 20)
#    0.000    2.000    5.000    2.000    0.000    3.000 
#    0.000    7.500    0.000   17.500    0.000    0.000 
#    0.000    0.000    0.000    0.000    0.000    0.000 
#
# Total GULP energy -267535.613200 kJ/mol
# GULP energy per Si atom -5573.658608 kJ/mol
# Density = 2.039742 g / cm^3
# Si number density = 20.443956 Si / 1000 Ang^3
#
#
#
# Elastic Constant Matrix: (Units=GPa)
#
#
# Indices 1 2 3 4 5 6 
#
# 1 69.1628 59.1242 21.9523 -0.0001 -3.5712 0.0000
# 2 59.1242 69.1628 21.9523 0.0001 3.5712 0.0000
# 3 21.9523 21.9523 54.2594 0.0000 0.0000 0.0000
# 4 -0.0001 0.0001 0.0000 16.8487 0.0000 3.5712
# 5 -3.5712 3.5712 0.0000 0.0000 16.8487 -0.0001
# 6 0.0000 0.0000 0.0000 3.5712 -0.0001 5.0193
#
#
#
# Elastic Compliance Matrix: (Units=1/GPa)
#
#
# Indices 1 2 3 4 5 6 
#
# 1 0.063177 -0.054129 -0.003661 0.000000 0.024864 0.000000
# 2 -0.054129 0.063177 -0.003661 0.000000 -0.024864 0.000000
# 3 -0.003661 -0.003661 0.021392 0.000000 0.000000 0.000000
# 4 0.000000 0.000000 0.000000 0.069892 0.000000 -0.049728
# 5 0.024864 -0.024864 0.000000 0.000000 0.069892 0.000001
# 6 0.000000 0.000000 0.000000 -0.049728 0.000001 0.234611
#
#
# Mechanical properties :
#
#
# Convention : Reuss Voigt Hill
#
# Bulk Modulus (GPa) = 40.24902 44.29361 42.27132
# Shear Modulus (GPa) = 7.65319 13.71377 10.68348
#
# Velocity S-wave (km/s) = 1.93691 2.59279 2.28847
# Velocity P-wave (km/s) = 4.97317 5.53862 5.26349
#
# Compressibility (1/GPa) = 0.02484532
#
# Stress axis : x y z
#
# Youngs Moduli (GPa) = 15.82862 15.82862 46.74658
#
# Poissons Ratio (x) = 0.85679 0.17112
# Poissons Ratio (y) = 0.85679 0.17112
# Poissons Ratio (z) = 0.05794 0.05794
#
# Static dielectric constant tensor:
#      x y z
#    x 1.742490 0.000000 0.000000 
#    y 0.000000 1.742490 0.000000 
#    z 0.000000 0.000000 1.759430 
# 
# From -- ./inp_files/1190.got.cif
#   From: 2010.05.17/outbox.cif.g08.bks.cpg/sg162_1_cif.got.tgz:1190.got - 2010.05.20 10:53:12.
