data_PCOD9577673
_publ_section_title
;
Structure prediction by ZEFSAII (Michael W. Deem and Ramdas Pophale) SiO2 
 PCOD9577673
Probable space group: P -3 1 M 
;
_chemical_formula_sum "Si O2"
_cell_formula_units_Z 60
_cell_length_a 18.653116
_cell_length_b 18.653116
_cell_length_c 11.867733
_cell_angle_alpha 90.000000
_cell_angle_beta 90.000000
_cell_angle_gamma 120.000000
_cell_volume 3576.030224
_symmetry_space_group_name_H-M "P -3 1 M "
_symmetry_group_IT_number 162
_symmetry_cell_setting 'hexagonal'
loop_
_space_group_symop_operation_xyz
x,y,z
-y,x-y,z
-x+y,-x,z
-y,-x,-z
-x+y,y,-z
x,x-y,-z
-x,-y,-z
y,-x+y,-z
x-y,x,-z
y,x,z
x-y,-y,z
-x,-x+y,z
loop_
_atom_site_type_symbol
_atom_site_label
_atom_site_fract_x
_atom_site_fract_y
_atom_site_fract_z
Si Si1 0.385732 0.192866 0.364917
Si Si2 0.665542 0.500887 0.000000
Si Si3 0.097188 0.466374 0.752494
Si Si4 0.903865 0.096135 0.637065
Si Si5 0.630814 0.097188 0.752494
O O1 0.387922 0.193961 0.500000
O O2 0.431974 0.285408 0.316652
O O3 0.288759 0.144380 0.329366
O O4 0.431974 0.146566 0.316652
O O5 0.650725 0.537204 0.885569
O O6 0.596117 0.403884 0.000000
O O7 0.756027 0.512053 0.000000
O O8 0.650725 0.537204 0.114431
O O9 0.122921 0.561461 0.726978
O O10 0.000000 0.411448 0.729078
O O11 0.904496 0.095505 0.500000
O O12 0.000000 0.144439 0.673569
O O13 0.855560 0.000000 0.673569
O O14 0.588552 0.000000 0.729078
#
# Coordination Sequence:
#
# PCOD9577673 Si02
#       5
#    12  12  12  12  12
#     4  11  22  36  53  78 111 151 189 225 268 322
#     4  10  18  33  57  84 107 133 172 225 284 331
#     4  10  21  37  57  80 108 142 182 228 277 328
#     4   9  17  30  50  75 103 136 177 225 271 315
#     4  10  21  37  57  80 108 142 182 228 277 328
#
# _framework density 16.778382000000001
#
# number of rings (size 3 to 8) (size 9 to 14) (size 15 to 20)
#    0.000    2.000    2.000    2.200    0.000    6.400 
#    1.200    2.000    0.000    0.000    0.000    0.000 
#    0.000    0.000    0.000    8.600    0.000    3.800 
#
# Total GULP energy -334714.397197 kJ/mol
# GULP energy per Si atom -5578.573287 kJ/mol
# Density = 1.674019 g / cm^3
# Si number density = 16.778382 Si / 1000 Ang^3
#
#
#
# Elastic Constant Matrix: (Units=GPa)
#
#
# Indices 1 2 3 4 5 6 
#
# 1 137.7277 93.1943 48.8936 0.0000 0.0000 0.0000
# 2 93.1943 137.7277 48.8936 0.0000 0.0000 0.0000
# 3 48.8936 48.8936 61.9548 0.0000 0.0000 0.0000
# 4 0.0000 0.0000 0.0000 11.5987 0.0000 0.0000
# 5 0.0000 0.0000 0.0000 0.0000 11.5987 0.0000
# 6 0.0000 0.0000 0.0000 0.0000 0.0000 22.2667
#
#
#
# Elastic Compliance Matrix: (Units=1/GPa)
#
#
# Indices 1 2 3 4 5 6 
#
# 1 0.014480 -0.007975 -0.005133 0.000000 0.000000 0.000000
# 2 -0.007975 0.014480 -0.005133 0.000000 0.000000 0.000000
# 3 -0.005133 -0.005133 0.024242 0.000000 0.000000 0.000000
# 4 0.000000 0.000000 0.000000 0.086217 0.000000 0.000000
# 5 0.000000 0.000000 0.000000 0.000000 0.086217 0.000000
# 6 0.000000 0.000000 0.000000 0.000000 0.000000 0.044910
#
#
# Mechanical properties :
#
#
# Convention : Reuss Voigt Hill
#
# Bulk Modulus (GPa) = 59.81239 79.93036 69.87138
# Shear Modulus (GPa) = 15.99488 18.85474 17.42481
#
# Velocity S-wave (km/s) = 3.09091 3.35588 3.22612
# Velocity P-wave (km/s) = 6.96162 7.92201 7.45729
#
# Compressibility (1/GPa) = 0.01671894
#
# Stress axis : x y z
#
# Youngs Moduli (GPa) = 69.06292 69.06292 41.25004
#
# Poissons Ratio (x) = 0.55081 0.21173
# Poissons Ratio (y) = 0.55081 0.21173
# Poissons Ratio (z) = 0.35449 0.35449
#
# Static dielectric constant tensor:
#      x y z
#    x 1.551780 0.000000 0.000000 
#    y 0.000000 1.551780 0.000000 
#    z 0.000000 0.000000 1.548600 
# 
# From -- ./inp_files/2291.got.cif
#   From: 2010.05.17/outbox.cif.g08.bks.cpg/sg162_2_cif.got.tgz:2291.got - 2010.05.20 10:53:12.
