data_PCOD9577094
_publ_section_title
;
Structure prediction by ZEFSAII (Michael W. Deem and Ramdas Pophale) SiO2 
 PCOD9577094
Probable space group: R 3 2
;
_chemical_formula_sum "Si O2"
_cell_formula_units_Z 84
_cell_length_a 14.399273
_cell_length_b 14.399273
_cell_length_c 22.459614
_cell_angle_alpha 90.000000
_cell_angle_beta 90.000000
_cell_angle_gamma 120.000000
_cell_volume 4032.868407
_symmetry_space_group_name_H-M "R 3 2"
_symmetry_group_IT_number 155
_symmetry_cell_setting 'hexagonal'
loop_
_space_group_symop_operation_xyz
x,y,z
-y,x-y,z
-x+y,-x,z
x-y,-y,-z
-x,-x+y,-z
y,x,-z
2/3+x,1/3+y,1/3+z
2/3-y,1/3+x-y,1/3+z
2/3-x+y,1/3-x,1/3+z
2/3+x-y,1/3-y,1/3-z
2/3-x,1/3-x+y,1/3-z
2/3+y,1/3+x,1/3-z
1/3+x,2/3+y,2/3+z
1/3-y,2/3+x-y,2/3+z
1/3-x+y,2/3-x,2/3+z
1/3+x-y,2/3-y,2/3-z
1/3-x,2/3-x+y,2/3-z
1/3+y,2/3+x,2/3-z
loop_
_atom_site_type_symbol
_atom_site_label
_atom_site_fract_x
_atom_site_fract_y
_atom_site_fract_z
Si Si1 0.052465 0.280883 0.104830
Si Si2 0.333334 0.666668 0.078309
Si Si3 0.108137 0.630654 0.230997
Si Si4 0.114584 0.481687 0.903157
Si Si5 0.443330 0.443330 0.000000
Si Si6 0.119233 0.000000 0.000000
Si Si7 0.333333 0.666667 0.397300
O O1 0.169297 0.384314 0.094457
O O2 0.069368 0.237195 0.167733
O O3 0.958692 0.310986 0.098275
O O4 0.016481 0.188921 0.057055
O O5 0.222049 0.652825 0.100225
O O6 0.333334 0.666667 0.007133
O O7 0.085736 0.666667 0.166667
O O8 0.082101 0.679962 0.288201
O O9 0.242330 0.548308 0.914517
O O10 0.067631 0.524564 0.955004
O O11 0.100769 0.100769 0.000000
#
# Coordination Sequence:
#
# PCOD9577094 Si02
#       7
#    18   6  18  18   9   9   6
#     4  11  26  48  73 106 142 198 246 305 371 445
#     4  12  25  40  72 105 148 196 232 302 385 442
#     4  12  25  44  72 110 155 193 248 302 374 448
#     4  11  26  46  75 101 151 188 246 306 374 439
#     4  12  23  43  70 114 150 196 236 301 369 450
#     4  10  27  47  72  94 140 194 242 301 357 440
#     4  12  27  46  73 112 142 198 244 320 367 447
#
# _framework density 20.828847
#
# number of rings (size 3 to 8) (size 9 to 14) (size 15 to 20)
#    0.214    0.429    4.286    2.571   10.500    0.000 
#    0.000    0.000    0.000    0.000    0.000    0.000 
#    0.000    0.000    0.000    0.000    0.000    0.000 
#
# Total GULP energy -156201.046999 kJ/mol
# GULP energy per Si atom -5578.608821 kJ/mol
# Density = 2.078144 g / cm^3
# Si number density = 20.828847 Si / 1000 Ang^3
#
#
#
# Elastic Constant Matrix: (Units=GPa)
#
#
# Indices 1 2 3 4 5 6 
#
# 1 44.4271 55.1687 46.3506 -33.3444 -0.0006 0.0000
# 2 55.1687 44.4278 46.3507 33.3448 0.0006 0.0000
# 3 46.3506 46.3507 173.3577 0.0001 0.0000 0.0000
# 4 -33.3444 33.3448 0.0001 -9.9617 0.0000 0.0006
# 5 -0.0006 0.0006 0.0000 0.0000 -9.9612 -33.3441
# 6 0.0000 0.0000 0.0000 0.0006 -33.3441 -5.3704
#
#
#
# Elastic Compliance Matrix: (Units=1/GPa)
#
#
# Indices 1 2 3 4 5 6 
#
# 1 0.009037 0.004330 -0.003574 -0.015753 0.000000 0.000000
# 2 0.004330 0.009037 -0.003574 0.015753 0.000000 0.000000
# 3 -0.003574 -0.003574 0.007680 0.000000 0.000000 0.000000
# 4 -0.015753 0.015753 0.000000 0.005074 0.000000 0.000001
# 5 0.000000 0.000000 0.000000 0.000000 0.005074 -0.031506
# 6 0.000000 0.000000 0.000000 0.000001 -0.031506 0.009412
#
#
# Mechanical properties :
#
#
# Convention : Reuss Voigt Hill
#
# Bulk Modulus (GPa) = 49.70696 61.99472 55.85084
# Shear Modulus (GPa) = 86.72324 2.56419 44.64371
#
# Velocity S-wave (km/s) = 6.45961 1.11074 4.63467
# Velocity P-wave (km/s) = 8.91917 5.61012 7.45068
#
# Compressibility (1/GPa) = 0.02011791
#
# Stress axis : x y z
#
# Youngs Moduli (GPa) = 110.65942 110.66163 130.21575
#
# Poissons Ratio (x) = -0.47921 0.46539
# Poissons Ratio (y) = -0.47921 0.46538
# Poissons Ratio (z) = 0.39549 0.39550
#
# Static dielectric constant tensor:
#      x y z
#    x 1.762660 0.000000 0.000000 
#    y 0.000000 1.762660 0.000000 
#    z 0.000000 0.000000 1.759680 
# 
# From -- ./inp_files/7434.got.cif
#   From: 2010.05.17/outbox.cif.g08.bks.cpg/sg155_4_cif.got.tgz:7434.got - 2010.05.20 10:44:35.
