data_PCOD9577255
_publ_section_title
;
Structure prediction by ZEFSAII (Michael W. Deem and Ramdas Pophale) SiO2 
 PCOD9577255
Probable space group: P 3 1 M
;
_chemical_formula_sum "Si O2"
_cell_formula_units_Z 29
_cell_length_a 13.921821
_cell_length_b 13.921821
_cell_length_c 9.299980
_cell_angle_alpha 90.000000
_cell_angle_beta 90.000000
_cell_angle_gamma 120.000000
_cell_volume 1561.006593
_symmetry_space_group_name_H-M "P 3 1 M"
_symmetry_group_IT_number 157
_symmetry_cell_setting 'hexagonal'
loop_
_space_group_symop_operation_xyz
x,y,z
-y,x-y,z
-x+y,-x,z
y,x,z
x-y,-y,z
-x,-x+y,z
loop_
_atom_site_type_symbol
_atom_site_label
_atom_site_fract_x
_atom_site_fract_y
_atom_site_fract_z
Si Si1 0.646407 0.646407 0.378230
Si Si2 0.000000 0.000000 0.578678
Si Si3 0.224996 0.000000 0.660223
Si Si4 0.000000 0.218499 0.105829
Si Si5 0.565274 0.201990 0.490132
Si Si6 0.000000 0.000000 0.225705
Si Si7 0.125783 0.577901 0.806232
Si Si8 0.166827 0.394043 0.889383
O O1 0.722801 0.722801 0.507986
O O2 0.706558 0.706558 0.235080
O O3 0.628136 0.525433 0.402510
O O4 0.000000 0.110140 0.637510
O O5 0.000000 0.000000 0.402160
O O6 0.318889 0.106607 0.747994
O O7 0.000000 0.109406 0.164229
O O8 0.890103 0.189721 0.011626
O O9 0.692665 0.243923 0.454894
O O10 0.565499 0.183078 0.661337
O O11 0.130760 0.487570 0.909625
O O12 0.170583 0.700664 0.868617
O O13 0.000000 0.532756 0.762822
#
# Coordination Sequence:
#
# PCOD9577255 Si02
#       8
#     3   1   3   3   6   1   6   6
#     4  12  20  44  65  89 139 176 221 275 333 399
#     4  12  27  43  71 100 123 172 227 280 339 388
#     4  11  22  43  66  98 123 167 224 286 320 395
#     4  11  28  47  68  92 133 189 218 283 325 411
#     4  10  19  36  62  99 129 174 212 268 339 386
#     4  12  27  55  68  79 138 184 224 262 363 385
#     4  12  19  35  65  95 131 167 213 276 326 391
#     4  11  23  42  65 100 133 168 224 269 337 384
#
# _framework density 18.577755
#
# number of rings (size 3 to 8) (size 9 to 14) (size 15 to 20)
#    0.414    0.414    8.276    0.414    2.897    2.483 
#    3.724    1.034    0.000    0.000    0.000    0.000 
#    0.000    0.000    0.000    0.000    0.000    0.000 
#
# Total GULP energy -161453.898716 kJ/mol
# GULP energy per Si atom -5567.375818 kJ/mol
# Density = 1.853547 g / cm^3
# Si number density = 18.577755 Si / 1000 Ang^3
#
#
#
# Elastic Constant Matrix: (Units=GPa)
#
#
# Indices 1 2 3 4 5 6 
#
# 1 147.7018 67.5492 34.6014 0.0000 -3.9423 0.0000
# 2 67.5492 147.7018 34.6014 0.0000 3.9423 0.0000
# 3 34.6014 34.6014 74.5095 0.0000 0.0000 0.0000
# 4 0.0000 0.0000 0.0000 20.7364 0.0000 3.9423
# 5 -3.9423 3.9423 0.0000 0.0000 20.7364 0.0000
# 6 0.0000 0.0000 0.0000 3.9423 0.0000 40.0763
#
#
#
# Elastic Compliance Matrix: (Units=1/GPa)
#
#
# Indices 1 2 3 4 5 6 
#
# 1 0.009088 -0.003626 -0.002536 0.000000 0.002417 0.000000
# 2 -0.003626 0.009088 -0.002536 0.000000 -0.002417 0.000000
# 3 -0.002536 -0.002536 0.015777 0.000000 0.000000 0.000000
# 4 0.000000 0.000000 0.000000 0.049143 0.000000 -0.004834
# 5 0.002417 -0.002417 0.000000 0.000000 0.049143 0.000000
# 6 0.000000 0.000000 0.000000 -0.004834 0.000000 0.025428
#
#
# Mechanical properties :
#
#
# Convention : Reuss Voigt Hill
#
# Bulk Modulus (GPa) = 60.40675 71.49079 65.94877
# Shear Modulus (GPa) = 27.68828 31.85388 29.77108
#
# Velocity S-wave (km/s) = 3.86476 4.14529 4.00748
# Velocity P-wave (km/s) = 7.24578 7.84071 7.54911
#
# Compressibility (1/GPa) = 0.01655444
#
# Stress axis : x y z
#
# Youngs Moduli (GPa) = 110.04090 110.04090 63.38521
#
# Poissons Ratio (x) = 0.39906 0.16075
# Poissons Ratio (y) = 0.39906 0.16075
# Poissons Ratio (z) = 0.27907 0.27907
#
# Static dielectric constant tensor:
#      x y z
#    x 1.670440 0.000000 0.000000 
#    y 0.000000 1.670440 0.000000 
#    z 0.000000 0.000000 1.657630 
# 
# From -- ./inp_files/359.got.cif
#   From: 2010.05.17/outbox.cif.g08.bks.cpg/sg157_cif.got.tgz:359.got - 2010.05.20 10:49:36.
