data_PCOD9577460
_publ_section_title
;
Structure prediction by ZEFSAII (Michael W. Deem and Ramdas Pophale) SiO2 
 PCOD9577460
Probable space group: R 3 M
;
_chemical_formula_sum "Si O2"
_cell_formula_units_Z 90
_cell_length_a 21.743435
_cell_length_b 21.743435
_cell_length_c 9.580588
_cell_angle_alpha 90.000000
_cell_angle_beta 90.000000
_cell_angle_gamma 120.000000
_cell_volume 3922.645892
_symmetry_space_group_name_H-M "R 3 M"
_symmetry_group_IT_number 160
_symmetry_cell_setting 'hexagonal'
loop_
_space_group_symop_operation_xyz
x,y,z
-y,x-y,z
-x+y,-x,z
-x+y,y,z
x,x-y,z
-y,-x,z
2/3+x,1/3+y,1/3+z
2/3-y,1/3+x-y,1/3+z
2/3-x+y,1/3-x,1/3+z
2/3-x+y,1/3+y,1/3+z
2/3+x,1/3+x-y,1/3+z
2/3-y,1/3-x,1/3+z
1/3+x,2/3+y,2/3+z
1/3-y,2/3+x-y,2/3+z
1/3-x+y,2/3-x,2/3+z
1/3-x+y,2/3+y,2/3+z
1/3+x,2/3+x-y,2/3+z
1/3-y,2/3-x,2/3+z
loop_
_atom_site_type_symbol
_atom_site_label
_atom_site_fract_x
_atom_site_fract_y
_atom_site_fract_z
Si Si1 0.666662 0.478642 0.036601
Si Si2 0.857400 0.274181 0.591156
Si Si3 0.301319 0.217990 0.356736
Si Si4 0.746836 0.110447 0.044995
Si Si5 0.302302 0.461508 0.672004
O O1 0.734471 0.468942 0.999999
O O2 0.590413 0.409588 0.995726
O O3 0.682839 0.558974 0.000591
O O4 0.664503 0.486767 0.204476
O O5 0.788279 0.211722 0.661010
O O6 0.894077 0.241528 0.495102
O O7 0.913362 0.334181 0.688886
O O8 0.838892 0.314639 0.471833
O O9 0.266008 0.133004 0.349436
O O10 0.348109 0.245817 0.213452
O O11 0.815305 0.184696 0.005677
O O12 0.762059 0.049828 0.985475
O O13 0.226514 0.453027 0.704185
#
# Coordination Sequence:
#
# PCOD9577460 Si02
#       5
#    18  18  18  18  18
#     4  10  17  25  38  60  86 108 134 173 228 283
#     4  10  17  28  47  67  92 126 161 200 247 293
#     4   9  17  29  47  70  92 123 164 202 243 294
#     4   8  14  25  37  54  79 110 149 179 212 269
#     4   9  16  25  41  61  82 111 149 190 224 271
#
# _framework density 22.943697
#
# number of rings (size 3 to 8) (size 9 to 14) (size 15 to 20)
#    0.000    2.800    2.000    2.600    0.000    0.000 
#    0.000    0.000    0.000   11.600    0.000    0.000 
#    0.000    0.000    0.000    0.000    0.000  127.200 
#
# Total GULP energy -167233.409692 kJ/mol
# GULP energy per Si atom -5574.446990 kJ/mol
# Density = 2.289148 g / cm^3
# Si number density = 22.943697 Si / 1000 Ang^3
#
#
#
# Elastic Constant Matrix: (Units=GPa)
#
#
# Indices 1 2 3 4 5 6 
#
# 1 117.0318 61.6017 14.0402 -16.7906 0.0003 0.0004
# 2 61.6017 117.0323 14.0414 16.7904 -0.0005 -0.0002
# 3 14.0402 14.0414 49.7497 -0.0006 -0.0016 0.0000
# 4 -16.7906 16.7904 -0.0006 1.1000 0.0000 0.0000
# 5 0.0003 -0.0005 -0.0016 0.0000 1.0992 -16.7903
# 6 0.0004 -0.0002 0.0000 0.0000 -16.7903 27.7156
#
#
#
# Elastic Compliance Matrix: (Units=1/GPa)
#
#
# Indices 1 2 3 4 5 6 
#
# 1 0.001835 0.004023 -0.001654 -0.033389 0.000000 0.000000
# 2 0.004023 0.001835 -0.001653 0.033389 0.000001 0.000000
# 3 -0.001654 -0.001653 0.021034 -0.000002 -0.000004 -0.000002
# 4 -0.033389 0.033389 -0.000002 -0.110228 -0.000005 -0.000002
# 5 0.000000 0.000001 -0.000004 -0.000005 -0.110224 -0.066775
# 6 0.000000 0.000000 -0.000002 -0.000002 -0.066775 -0.004372
#
#
# Mechanical properties :
#
#
# Convention : Reuss Voigt Hill
#
# Bulk Modulus (GPa) = 38.26055 51.46450 44.86253
# Shear Modulus (GPa) = -25.92837 18.92498 -3.50169
#
# Velocity S-wave (km/s) = -3.36532 2.87513 -1.23674
# Velocity P-wave (km/s) = 1.26945 5.78803 4.19004
#
# Compressibility (1/GPa) = 0.02613658
#
# Stress axis : x y z
#
# Youngs Moduli (GPa) = 544.87172 544.88035 47.54247
#
# Poissons Ratio (x) = -2.19187 0.07862
# Poissons Ratio (y) = -2.19184 0.07858
# Poissons Ratio (z) = 0.90105 0.90062
#
# Static dielectric constant tensor:
#      x y z
#    x 1.890890 0.000000 0.000000 
#    y 0.000000 1.890890 0.000000 
#    z 0.000000 0.000000 1.869630 
# 
# From -- ./inp_files/2303.got.cif
#   From: 2010.05.17/outbox.cif.g08.bks.cpg/sg160_2_cif.got.tgz:2303.got - 2010.05.20 10:51:19.
