data_PCOD9577550
_publ_section_title
;
Structure prediction by ZEFSAII (Michael W. Deem and Ramdas Pophale) SiO2 
 PCOD9577550
Probable space group: R 3 C
;
_chemical_formula_sum "Si O2"
_cell_formula_units_Z 126
_cell_length_a 16.834016
_cell_length_b 16.834016
_cell_length_c 26.221386
_cell_angle_alpha 90.000000
_cell_angle_beta 90.000000
_cell_angle_gamma 120.000000
_cell_volume 6435.195521
_symmetry_space_group_name_H-M "R 3 C"
_symmetry_group_IT_number 161
_symmetry_cell_setting 'hexagonal'
loop_
_space_group_symop_operation_xyz
x,y,z
-y,x-y,z
-x+y,-x,z
-x+y,y,1/2+z
x,x-y,1/2+z
-y,-x,1/2+z
2/3+x,1/3+y,1/3+z
2/3-y,1/3+x-y,1/3+z
2/3-x+y,1/3-x,1/3+z
2/3-x+y,1/3+y,5/6+z
2/3+x,1/3+x-y,5/6+z
2/3-y,1/3-x,5/6+z
1/3+x,2/3+y,2/3+z
1/3-y,2/3+x-y,2/3+z
1/3-x+y,2/3-x,2/3+z
1/3-x+y,2/3+y,1/6+z
1/3+x,2/3+x-y,1/6+z
1/3-y,2/3-x,1/6+z
loop_
_atom_site_type_symbol
_atom_site_label
_atom_site_fract_x
_atom_site_fract_y
_atom_site_fract_z
Si Si1 0.595734 0.680791 0.891946
Si Si2 0.787234 0.816176 0.851182
Si Si3 0.949701 0.784140 0.243352
Si Si4 0.098880 0.503275 0.098341
Si Si5 0.615142 0.824739 0.581696
Si Si6 0.451168 0.494171 0.842871
Si Si7 0.712765 0.753172 0.992672
O O1 0.677962 0.742371 0.852191
O O2 0.538292 0.733528 0.898793
O O3 0.531658 0.577833 0.873725
O O4 0.649195 0.692569 0.945271
O O5 0.829225 0.831897 0.795314
O O6 0.800422 0.906778 0.879067
O O7 0.829547 0.769552 0.887855
O O8 0.903556 0.675227 0.256223
O O9 0.021719 0.812753 0.197431
O O10 0.156048 0.455189 0.113513
O O11 0.098901 0.575255 0.138593
O O12 0.701641 0.844181 0.616287
O O13 0.647362 0.897489 0.536776
O O14 0.442326 0.394396 0.847083
#
# Coordination Sequence:
#
# PCOD9577550 Si02
#       7
#    18  18  18  18  18  18  18
#     4  10  23  40  63  94 125 167 221 276 317 406
#     4  10  20  40  63  89 124 170 218 273 325 382
#     4  10  21  39  61  91 128 167 219 271 322 389
#     4  10  21  38  63  92 128 161 221 274 312 396
#     4  12  21  39  66  96 127 172 217 269 333 397
#     4  12  24  38  67 100 126 175 217 272 347 388
#     4  10  22  42  61  94 128 170 217 271 318 400
#
# _framework density 19.579825
#
# number of rings (size 3 to 8) (size 9 to 14) (size 15 to 20)
#    0.000    1.714    7.143    0.857    2.000    0.000 
#    1.714    0.000    0.000    0.000    0.000    0.000 
#    0.000    0.000    0.000    0.000    0.000    0.000 
#
# Total GULP energy -234202.487009 kJ/mol
# GULP energy per Si atom -5576.249691 kJ/mol
# Density = 1.953526 g / cm^3
# Si number density = 19.579825 Si / 1000 Ang^3
#
#
#
# Elastic Constant Matrix: (Units=GPa)
#
#
# Indices 1 2 3 4 5 6 
#
# 1 83.8988 23.3064 26.8418 -6.2862 0.0000 0.0000
# 2 23.3064 83.8988 26.8418 6.2862 0.0000 0.0000
# 3 26.8418 26.8418 69.0961 0.0000 0.0000 0.0000
# 4 -6.2862 6.2862 0.0000 22.4629 0.0000 0.0000
# 5 0.0000 0.0000 0.0000 0.0000 22.4629 -6.2862
# 6 0.0000 0.0000 0.0000 0.0000 -6.2862 30.2962
#
#
#
# Elastic Compliance Matrix: (Units=1/GPa)
#
#
# Indices 1 2 3 4 5 6 
#
# 1 0.014551 -0.002970 -0.004499 0.004903 0.000000 0.000000
# 2 -0.002970 0.014551 -0.004499 -0.004903 0.000000 0.000000
# 3 -0.004499 -0.004499 0.017968 0.000000 0.000000 0.000000
# 4 0.004903 -0.004903 0.000000 0.047262 0.000000 0.000000
# 5 0.000000 0.000000 0.000000 0.000000 0.047262 0.009806
# 6 0.000000 0.000000 0.000000 0.000000 0.009806 0.035042
#
#
# Mechanical properties :
#
#
# Convention : Reuss Voigt Hill
#
# Bulk Modulus (GPa) = 43.22603 43.43042 43.32823
# Shear Modulus (GPa) = 24.00582 25.70466 24.85524
#
# Velocity S-wave (km/s) = 3.50530 3.62721 3.56677
# Velocity P-wave (km/s) = 6.20545 6.30647 6.25616
#
# Compressibility (1/GPa) = 0.02313421
#
# Stress axis : x y z
#
# Youngs Moduli (GPa) = 68.72431 68.72431 55.65487
#
# Poissons Ratio (x) = 0.20413 0.25038
# Poissons Ratio (y) = 0.20413 0.25038
# Poissons Ratio (z) = 0.30917 0.30917
#
# Static dielectric constant tensor:
#      x y z
#    x 1.716810 0.000000 0.000000 
#    y 0.000000 1.716810 0.000000 
#    z 0.000000 0.000000 1.731250 
# 
# From -- ./inp_files/2131.got.cif
#   From: 2010.05.17/outbox.cif.g08.bks.cpg/sg161_cif.got.tgz:2131.got - 2010.05.20 10:52:32.
