data_PCOD9577609
_publ_section_title
;
Structure prediction by ZEFSAII (Michael W. Deem and Ramdas Pophale) SiO2 
 PCOD9577609
Probable space group: R 3 C
;
_chemical_formula_sum "Si O2"
_cell_formula_units_Z 120
_cell_length_a 15.289208
_cell_length_b 15.289208
_cell_length_c 29.291757
_cell_angle_alpha 90.000000
_cell_angle_beta 90.000000
_cell_angle_gamma 120.000000
_cell_volume 5929.881741
_symmetry_space_group_name_H-M "R 3 C"
_symmetry_group_IT_number 161
_symmetry_cell_setting 'hexagonal'
loop_
_space_group_symop_operation_xyz
x,y,z
-y,x-y,z
-x+y,-x,z
-x+y,y,1/2+z
x,x-y,1/2+z
-y,-x,1/2+z
2/3+x,1/3+y,1/3+z
2/3-y,1/3+x-y,1/3+z
2/3-x+y,1/3-x,1/3+z
2/3-x+y,1/3+y,5/6+z
2/3+x,1/3+x-y,5/6+z
2/3-y,1/3-x,5/6+z
1/3+x,2/3+y,2/3+z
1/3-y,2/3+x-y,2/3+z
1/3-x+y,2/3-x,2/3+z
1/3-x+y,2/3+y,1/6+z
1/3+x,2/3+x-y,1/6+z
1/3-y,2/3-x,1/6+z
loop_
_atom_site_type_symbol
_atom_site_label
_atom_site_fract_x
_atom_site_fract_y
_atom_site_fract_z
Si Si1 0.566952 0.460148 0.684648
Si Si2 0.666668 0.333334 0.185474
Si Si3 0.681761 0.994172 0.208657
Si Si4 0.329880 0.003608 0.532686
Si Si5 0.666668 0.333334 0.074349
Si Si6 0.868788 0.330816 0.450507
Si Si7 0.567989 0.460310 0.577371
Si Si8 0.327384 0.870344 0.284768
O O1 0.599051 0.380312 0.700628
O O2 0.636806 0.567544 0.707538
O O3 0.447756 0.411559 0.690960
O O4 0.588145 0.477948 0.630883
O O5 0.666668 0.333334 0.129829
O O6 0.786423 0.041191 0.236169
O O7 0.595622 0.900246 0.235973
O O8 0.713052 0.980104 0.157813
O O9 0.273873 0.032275 0.571366
O O10 0.369475 0.068435 0.486100
O O11 0.436151 0.026616 0.554480
O O12 0.777990 0.418825 0.059807
O O13 0.868232 0.431654 0.466001
O O14 0.757702 0.234620 0.445491
#
# Coordination Sequence:
#
# PCOD9577609 Si02
#       8
#    18   6  18  18   6  18  18  18
#     4  11  22  42  63  99 133 174 224 277 334 406
#     4   9  21  36  66  90 135 166 209 283 348 372
#     4  12  24  42  70  97 132 180 224 274 338 400
#     4  12  24  42  70  97 132 180 224 274 338 400
#     4   9  24  36  63 102 132 163 227 295 342 405
#     4  12  27  45  69  99 135 178 227 279 340 404
#     4  11  23  40  66  95 134 173 222 283 342 391
#     4  12  27  45  69  99 135 178 227 279 340 404
#
# _framework density 20.236491999999998
#
# number of rings (size 3 to 8) (size 9 to 14) (size 15 to 20)
#    0.000    0.600    6.000    2.100    4.200    0.000 
#    0.000    0.000    0.000    0.000    0.000    0.000 
#    0.000    0.000    0.000    0.000    0.000    0.000 
#
# Total GULP energy -223452.984762 kJ/mol
# GULP energy per Si atom -5586.324619 kJ/mol
# Density = 2.019043 g / cm^3
# Si number density = 20.236492 Si / 1000 Ang^3
#
#
#
# Elastic Constant Matrix: (Units=GPa)
#
#
# Indices 1 2 3 4 5 6 
#
# 1 85.8418 23.5766 25.0938 3.4860 0.0000 0.0000
# 2 23.5766 85.8427 25.0940 -3.4859 0.0000 0.0000
# 3 25.0938 25.0940 73.6502 0.0000 0.0000 0.0000
# 4 3.4860 -3.4859 0.0000 28.2079 0.0000 0.0000
# 5 0.0000 0.0000 0.0000 0.0000 28.2076 3.4859
# 6 0.0000 0.0000 0.0000 0.0000 3.4859 31.1332
#
#
#
# Elastic Compliance Matrix: (Units=1/GPa)
#
#
# Indices 1 2 3 4 5 6 
#
# 1 0.013559 -0.002727 -0.003691 -0.002013 0.000000 0.000000
# 2 -0.002727 0.013559 -0.003691 0.002013 0.000000 0.000000
# 3 -0.003691 -0.003691 0.016093 0.000000 0.000000 0.000000
# 4 -0.002013 0.002013 0.000000 0.035949 0.000000 0.000000
# 5 0.000000 0.000000 0.000000 0.000000 0.035949 -0.004025
# 6 0.000000 0.000000 0.000000 0.000000 -0.004025 0.032571
#
#
# Mechanical properties :
#
#
# Convention : Reuss Voigt Hill
#
# Bulk Modulus (GPa) = 43.48955 43.65151 43.57053
# Shear Modulus (GPa) = 28.48043 28.94776 28.71410
#
# Velocity S-wave (km/s) = 3.75558 3.78626 3.77095
# Velocity P-wave (km/s) = 6.35162 6.38216 6.36691
#
# Compressibility (1/GPa) = 0.02299403
#
# Stress axis : x y z
#
# Youngs Moduli (GPa) = 73.75255 73.75324 62.14019
#
# Poissons Ratio (x) = 0.20111 0.22934
# Poissons Ratio (y) = 0.20111 0.22934
# Poissons Ratio (z) = 0.27220 0.27220
#
# Static dielectric constant tensor:
#      x y z
#    x 1.689220 0.000000 0.000000 
#    y 0.000000 1.689220 0.000000 
#    z 0.000000 0.000000 1.743640 
# 
# From -- ./inp_files/2438.got.cif
#   From: 2010.05.17/outbox.cif.g08.bks.cpg/sg161_cif.got.tgz:2438.got - 2010.05.20 10:52:32.
