data_PCOD9577619
_publ_section_title
;
Structure prediction by ZEFSAII (Michael W. Deem and Ramdas Pophale) SiO2 
 PCOD9577619
Probable space group: R 3 C
;
_chemical_formula_sum "Si O2"
_cell_formula_units_Z 84
_cell_length_a 13.805352
_cell_length_b 13.805352
_cell_length_c 20.833568
_cell_angle_alpha 90.000000
_cell_angle_beta 90.000000
_cell_angle_gamma 120.000000
_cell_volume 3438.660146
_symmetry_space_group_name_H-M "R 3 C"
_symmetry_group_IT_number 161
_symmetry_cell_setting 'hexagonal'
loop_
_space_group_symop_operation_xyz
x,y,z
-y,x-y,z
-x+y,-x,z
-x+y,y,1/2+z
x,x-y,1/2+z
-y,-x,1/2+z
2/3+x,1/3+y,1/3+z
2/3-y,1/3+x-y,1/3+z
2/3-x+y,1/3-x,1/3+z
2/3-x+y,1/3+y,5/6+z
2/3+x,1/3+x-y,5/6+z
2/3-y,1/3-x,5/6+z
1/3+x,2/3+y,2/3+z
1/3-y,2/3+x-y,2/3+z
1/3-x+y,2/3-x,2/3+z
1/3-x+y,2/3+y,1/6+z
1/3+x,2/3+x-y,1/6+z
1/3-y,2/3-x,1/6+z
loop_
_atom_site_type_symbol
_atom_site_label
_atom_site_fract_x
_atom_site_fract_y
_atom_site_fract_z
Si Si1 0.666668 0.333334 0.202096
Si Si2 0.593856 0.791816 0.361869
Si Si3 0.414597 0.412811 0.326788
Si Si4 0.386824 0.026617 0.354682
Si Si5 0.000000 0.000000 0.215264
Si Si6 0.781104 0.877922 0.451145
O O1 0.666668 0.333334 0.125801
O O2 0.706469 0.249205 0.230288
O O3 0.630448 0.918901 0.348498
O O4 0.644562 0.723956 0.325344
O O5 0.461032 0.725852 0.358775
O O6 0.651213 0.800192 0.430214
O O7 0.506032 0.527718 0.360556
O O8 0.390796 0.411749 0.249223
O O9 0.460768 0.327662 0.336051
O O10 0.453642 0.131650 0.309476
#
# Coordination Sequence:
#
# PCOD9577619 Si02
#       6
#     6  18  18  18   6  18
#     4  12  27  48  70 104 142 183 237 285 352 431
#     4  11  27  44  72 102 141 185 235 294 354 426
#     4  11  26  46  70 105 143 188 239 294 360 424
#     4  11  26  46  70 105 143 188 239 294 360 424
#     4  12  27  48  70 104 142 183 237 285 352 431
#     4  11  27  44  72 102 141 185 235 294 354 426
#
# _framework density 24.428121000000001
#
# number of rings (size 3 to 8) (size 9 to 14) (size 15 to 20)
#    0.000    0.857    4.286    0.000   18.000    0.000 
#    0.000    0.000    0.000    0.000    0.000    0.000 
#    0.000    0.000    0.000    0.000    0.000    0.000 
#
# Total GULP energy -156047.128823 kJ/mol
# GULP energy per Si atom -5573.111744 kJ/mol
# Density = 2.437252 g / cm^3
# Si number density = 24.428121 Si / 1000 Ang^3
#
#
#
# Elastic Constant Matrix: (Units=GPa)
#
#
# Indices 1 2 3 4 5 6 
#
# 1 99.6135 22.2961 1.4771 2.8850 0.0000 0.0000
# 2 22.2961 99.6134 1.4776 -2.8847 0.0000 0.0000
# 3 1.4771 1.4776 21.0602 0.0000 0.0000 0.0000
# 4 2.8850 -2.8847 0.0000 26.7639 0.0000 0.0000
# 5 0.0000 0.0000 0.0000 0.0000 26.7641 2.8851
# 6 0.0000 0.0000 0.0000 0.0000 2.8851 38.6583
#
#
#
# Elastic Compliance Matrix: (Units=1/GPa)
#
#
# Indices 1 2 3 4 5 6 
#
# 1 0.010628 -0.002411 -0.000576 -0.001405 0.000000 0.000000
# 2 -0.002411 0.010628 -0.000577 0.001405 0.000000 0.000000
# 3 -0.000576 -0.000577 0.047564 0.000000 0.000000 0.000000
# 4 -0.001405 0.001405 0.000000 0.037667 0.000000 0.000000
# 5 0.000000 0.000000 0.000000 0.000000 0.037667 -0.002811
# 6 0.000000 0.000000 0.000000 0.000000 -0.002811 0.026077
#
#
# Mechanical properties :
#
#
# Convention : Reuss Voigt Hill
#
# Bulk Modulus (GPa) = 16.20961 30.08765 23.14863
# Shear Modulus (GPa) = 25.26256 31.43967 28.35111
#
# Velocity S-wave (km/s) = 3.21932 3.59141 3.41044
# Velocity P-wave (km/s) = 4.52424 5.43518 5.00050
#
# Compressibility (1/GPa) = 0.06169178
#
# Stress axis : x y z
#
# Youngs Moduli (GPa) = 94.09399 94.09381 21.02435
#
# Poissons Ratio (x) = 0.22685 0.01212
# Poissons Ratio (y) = 0.22685 0.01212
# Poissons Ratio (z) = 0.05422 0.05425
#
# Static dielectric constant tensor:
#      x y z
#    x 1.972590 0.000000 0.000000 
#    y 0.000000 1.972590 0.000000 
#    z 0.000000 0.000000 2.020930 
# 
# From -- ./inp_files/1857.got.cif
#   From: 2010.05.17/outbox.cif.g08.bks.cpg/sg161_cif.got.tgz:1857.got - 2010.05.20 10:52:32.
