data_PCOD9578473
_publ_section_title
;
Structure prediction by ZEFSAII (Michael W. Deem and Ramdas Pophale) SiO2 
 PCOD9578473
Probable space group: P -3 M 1
;
_chemical_formula_sum "Si O2"
_cell_formula_units_Z 84
_cell_length_a 18.003094
_cell_length_b 18.003094
_cell_length_c 14.857698
_cell_angle_alpha 90.000000
_cell_angle_beta 90.000000
_cell_angle_gamma 120.000000
_cell_volume 4170.387944
_symmetry_space_group_name_H-M "P -3 M 1"
_symmetry_group_IT_number 164
_symmetry_cell_setting 'hexagonal'
loop_
_space_group_symop_operation_xyz
x,y,z
-y,x-y,z
-x+y,-x,z
x-y,-y,-z
-x,-x+y,-z
y,x,-z
-x,-y,-z
y,-x+y,-z
x-y,x,-z
-x+y,y,z
x,x-y,z
-y,-x,z
loop_
_atom_site_type_symbol
_atom_site_label
_atom_site_fract_x
_atom_site_fract_y
_atom_site_fract_z
Si Si1 0.834975 0.001508 0.794565
Si Si2 0.333780 0.504044 0.539048
Si Si3 0.198029 0.967919 0.599692
Si Si4 0.319404 0.073285 0.074145
Si Si5 0.633155 0.025409 0.337655
Si Si6 0.500229 0.833502 0.322581
Si Si7 0.156571 0.666938 0.823657
O O1 0.860238 0.930119 0.820281
O O2 0.831494 0.001899 0.686038
O O3 0.741325 0.967577 0.837463
O O4 0.905340 0.094661 0.827491
O O5 0.237696 0.475391 0.571299
O O6 0.396802 0.603199 0.562536
O O7 0.378257 0.453258 0.578270
O O8 0.329831 0.496259 0.431418
O O9 0.133921 0.866080 0.599569
O O10 0.292590 0.990552 0.625415
O O11 0.194138 0.000000 0.500000
O O12 0.308523 0.154262 0.047465
O O13 0.419007 0.111523 0.097702
O O14 0.285025 0.000000 0.000000
O O15 0.658242 0.097634 0.261815
O O16 0.560514 0.933848 0.300471
O O17 0.403120 0.806239 0.296439
O O18 0.524352 0.762176 0.290937
O O19 0.157394 0.578697 0.836088
O O20 0.252249 0.747752 0.812313
#
# Coordination Sequence:
#
# PCOD9578473 Si02
#       7
#    12  12  12  12  12  12  12
#     4  10  20  36  58  87 123 164 209 255 307 364
#     4  10  19  31  49  72 103 142 189 243 301 360
#     4  11  22  36  54  80 119 167 214 260 309 361
#     4  10  21  40  65  95 128 161 198 248 305 364
#     4  12  22  35  54  79 114 150 200 253 304 355
#     4  10  21  36  52  73 102 144 195 251 309 364
#     4  11  23  41  64  92 126 161 198 243 301 367
#
# _framework density 20.142011
#
# number of rings (size 3 to 8) (size 9 to 14) (size 15 to 20)
#    0.000    1.429    1.429    5.286    0.000    4.857 
#    0.000    1.429    0.000    4.571    0.000    0.000 
#    0.000    2.286    0.000    0.000    0.000    0.000 
#
# Total GULP energy -468424.527493 kJ/mol
# GULP energy per Si atom -5576.482470 kJ/mol
# Density = 2.009617 g / cm^3
# Si number density = 20.142011 Si / 1000 Ang^3
#
#
#
# Elastic Constant Matrix: (Units=GPa)
#
#
# Indices 1 2 3 4 5 6 
#
# 1 99.2468 62.5219 23.6850 -3.9469 0.0000 0.0000
# 2 62.5219 99.2468 23.6850 3.9469 0.0000 0.0000
# 3 23.6850 23.6850 58.9945 0.0000 0.0000 0.0000
# 4 -3.9469 3.9469 0.0000 10.7391 0.0000 0.0000
# 5 0.0000 0.0000 0.0000 0.0000 10.7391 -3.9469
# 6 0.0000 0.0000 0.0000 0.0000 -3.9469 18.3625
#
#
#
# Elastic Compliance Matrix: (Units=1/GPa)
#
#
# Indices 1 2 3 4 5 6 
#
# 1 0.018285 -0.011280 -0.002812 0.010866 0.000000 0.000000
# 2 -0.011280 0.018285 -0.002812 -0.010866 0.000000 0.000000
# 3 -0.002812 -0.002812 0.019209 0.000000 0.000000 0.000000
# 4 0.010866 -0.010866 0.000000 0.101105 0.000000 0.000000
# 5 0.000000 0.000000 0.000000 0.000000 0.101105 0.021732
# 6 0.000000 0.000000 0.000000 0.000000 0.021732 0.059130
#
#
# Mechanical properties :
#
#
# Convention : Reuss Voigt Hill
#
# Bulk Modulus (GPa) = 45.51730 53.03021 49.27376
# Shear Modulus (GPa) = 13.95666 17.80788 15.88227
#
# Velocity S-wave (km/s) = 2.63518 2.97664 2.81110
# Velocity P-wave (km/s) = 5.64855 6.18054 5.92053
#
# Compressibility (1/GPa) = 0.02196967
#
# Stress axis : x y z
#
# Youngs Moduli (GPa) = 54.68921 54.68921 52.05892
#
# Poissons Ratio (x) = 0.61689 0.14641
# Poissons Ratio (y) = 0.61689 0.14641
# Poissons Ratio (z) = 0.15381 0.15381
#
# Static dielectric constant tensor:
#      x y z
#    x 1.747750 0.000000 0.000000 
#    y 0.000000 1.747750 0.000000 
#    z 0.000000 0.000000 1.723840 
# 
# From -- ./inp_files/3585.got.cif
#   From: 2010.05.17/outbox.cif.g08.bks.cpg/sg164_2_cif.got.tgz:3585.got - 2010.05.20 10:58:56.
