data_PCOD9578380
_publ_section_title
;
Structure prediction by ZEFSAII (Michael W. Deem and Ramdas Pophale) SiO2 
 PCOD9578380
Probable space group: P -3 M 1
;
_chemical_formula_sum "Si O2"
_cell_formula_units_Z 72
_cell_length_a 23.603186
_cell_length_b 23.603186
_cell_length_c 8.869105
_cell_angle_alpha 90.000000
_cell_angle_beta 90.000000
_cell_angle_gamma 120.000000
_cell_volume 4279.092609
_symmetry_space_group_name_H-M "P -3 M 1"
_symmetry_group_IT_number 164
_symmetry_cell_setting 'hexagonal'
loop_
_space_group_symop_operation_xyz
x,y,z
-y,x-y,z
-x+y,-x,z
x-y,-y,-z
-x,-x+y,-z
y,x,-z
-x,-y,-z
y,-x+y,-z
x-y,x,-z
-x+y,y,z
x,x-y,z
-y,-x,z
loop_
_atom_site_type_symbol
_atom_site_label
_atom_site_fract_x
_atom_site_fract_y
_atom_site_fract_z
Si Si1 0.351024 0.932646 0.934808
Si Si2 0.891464 0.654691 0.845505
Si Si3 0.273452 0.069566 0.548746
Si Si4 0.301727 0.476446 0.361939
Si Si5 0.664511 0.202136 0.946924
Si Si6 0.931829 0.330234 0.419369
O O1 0.350910 0.866049 0.976540
O O2 0.344339 0.936696 0.756783
O O3 0.287322 0.925666 0.021230
O O4 0.411022 0.000000 0.000000
O O5 0.832061 0.664121 0.900761
O O6 0.934214 0.710540 0.725335
O O7 0.859140 0.589915 0.739422
O O8 0.265545 0.132773 0.530231
O O9 0.337196 0.079688 0.455043
O O10 0.214026 0.000000 0.500000
O O11 0.242696 0.485391 0.421504
O O12 0.336649 0.461985 0.497728
O O13 0.339909 0.529735 0.234027
O O14 0.610149 0.220297 0.993031
O O15 0.738248 0.261752 0.976633
O O16 0.000000 0.378314 0.500000
#
# Coordination Sequence:
#
# PCOD9578380 Si02
#       6
#    12  12  12  12  12  12
#     4  11  20  31  51  78 108 136 163 201 251 308
#     4   8  15  28  44  66  97 129 160 196 240 291
#     4   9  16  27  43  64  94 131 170 210 250 297
#     4   8  15  29  48  68  91 121 158 199 239 283
#     4  10  21  38  58  77  99 131 172 214 254 298
#     4  10  18  29  47  73 103 133 161 193 242 305
#
# _framework density 16.825997999999998
#
# number of rings (size 3 to 8) (size 9 to 14) (size 15 to 20)
#    0.000    2.667    0.000    7.167    0.000    3.000 
#    0.000    0.833    0.000    2.167    0.000    2.333 
#    0.000    0.000    0.000    0.000    0.000   44.833 
#
# Total GULP energy -400921.381998 kJ/mol
# GULP energy per Si atom -5568.352528 kJ/mol
# Density = 1.678770 g / cm^3
# Si number density = 16.825998 Si / 1000 Ang^3
#
#
#
# Elastic Constant Matrix: (Units=GPa)
#
#
# Indices 1 2 3 4 5 6 
#
# 1 67.0732 39.5946 31.3096 -1.7815 0.0000 0.0000
# 2 39.5946 67.0732 31.3096 1.7815 0.0000 0.0000
# 3 31.3096 31.3096 98.0425 0.0000 0.0000 0.0000
# 4 -1.7815 1.7815 0.0000 15.5466 0.0000 0.0000
# 5 0.0000 0.0000 0.0000 0.0000 15.5466 -1.7815
# 6 0.0000 0.0000 0.0000 0.0000 -1.7815 13.7393
#
#
#
# Elastic Compliance Matrix: (Units=1/GPa)
#
#
# Indices 1 2 3 4 5 6 
#
# 1 0.024239 -0.012701 -0.003685 0.004233 0.000000 0.000000
# 2 -0.012701 0.024239 -0.003685 -0.004233 0.000000 0.000000
# 3 -0.003685 -0.003685 0.012553 0.000000 0.000000 0.000000
# 4 0.004233 -0.004233 0.000000 0.065293 0.000000 0.000000
# 5 0.000000 0.000000 0.000000 0.000000 0.065293 0.008466
# 6 0.000000 0.000000 0.000000 0.000000 0.008466 0.073882
#
#
# Mechanical properties :
#
#
# Convention : Reuss Voigt Hill
#
# Bulk Modulus (GPa) = 47.86877 48.51295 48.19086
# Shear Modulus (GPa) = 15.99471 17.63153 16.81312
#
# Velocity S-wave (km/s) = 3.08652 3.24060 3.16450
# Velocity P-wave (km/s) = 6.41975 6.54956 6.48498
#
# Compressibility (1/GPa) = 0.02089045
#
# Stress axis : x y z
#
# Youngs Moduli (GPa) = 41.25521 41.25521 79.66222
#
# Poissons Ratio (x) = 0.52400 0.29352
# Poissons Ratio (y) = 0.52400 0.29352
# Poissons Ratio (z) = 0.15201 0.15201
#
# Static dielectric constant tensor:
#      x y z
#    x 1.590750 0.000000 0.000000 
#    y 0.000000 1.590750 0.000000 
#    z 0.000000 0.000000 1.569610 
# 
# From -- ./inp_files/1971.got.cif
#   From: 2010.05.17/outbox.cif.g08.bks.cpg/sg164_1_cif.got.tgz:1971.got - 2010.05.20 10:58:56.
