data_PCOD9578994
_publ_section_title
;
Structure prediction by ZEFSAII (Michael W. Deem and Ramdas Pophale) SiO2 
 PCOD9578994
Probable space group: P -3 C 1
;
_chemical_formula_sum "Si O2"
_cell_formula_units_Z 72
_cell_length_a 14.084601
_cell_length_b 14.084601
_cell_length_c 19.628341
_cell_angle_alpha 90.000000
_cell_angle_beta 90.000000
_cell_angle_gamma 120.000000
_cell_volume 3372.122344
_symmetry_space_group_name_H-M "P -3 C 1"
_symmetry_group_IT_number 165
_symmetry_cell_setting 'hexagonal'
loop_
_space_group_symop_operation_xyz
x,y,z
-y,x-y,z
-x+y,-x,z
x-y,-y,1/2-z
-x,-x+y,1/2-z
y,x,1/2-z
-x,-y,-z
y,-x+y,-z
x-y,x,-z
-x+y,y,1/2+z
x,x-y,1/2+z
-y,-x,1/2+z
loop_
_atom_site_type_symbol
_atom_site_label
_atom_site_fract_x
_atom_site_fract_y
_atom_site_fract_z
Si Si1 0.909197 0.755028 0.630926
Si Si2 0.102206 0.533449 0.952080
Si Si3 0.588919 0.771814 0.488093
Si Si4 0.478178 0.898337 0.290400
Si Si5 0.163635 0.267409 0.124767
Si Si6 0.585706 0.824489 0.751728
O O1 0.891624 0.675125 0.568616
O O2 0.810289 0.782543 0.631919
O O3 0.896510 0.685025 0.697670
O O4 0.033122 0.853411 0.624096
O O5 0.180795 0.657745 0.976418
O O6 0.140389 0.447548 0.970834
O O7 0.082537 0.531182 0.870654
O O8 0.000000 0.500000 0.000000
O O9 0.654876 0.793531 0.558289
O O10 0.368869 0.873625 0.249346
O O11 0.508446 0.803476 0.284551
O O12 0.573670 0.000000 0.250000
O O13 0.184529 0.354508 0.184610
#
# Coordination Sequence:
#
# PCOD9578994 Si02
#       6
#    12  12  12  12  12  12
#     4  12  23  48  68 106 142 196 237 294 366 416
#     4  12  25  46  72 102 139 186 231 288 361 421
#     4  12  27  44  74 103 145 187 237 296 358 431
#     4  12  25  46  72 102 139 186 231 288 361 421
#     4  12  27  44  74 108 148 188 247 300 350 434
#     4  12  27  44  74 103 145 187 237 296 358 431
#
# _framework density 21.351538999999999
#
# number of rings (size 3 to 8) (size 9 to 14) (size 15 to 20)
#    0.000    0.000    3.333    7.000    4.667    0.000 
#    0.000    3.333    0.000    0.000    0.000    0.000 
#    0.000    0.000    0.000    0.000    0.000    0.000 
#
# Total GULP energy -402484.041976 kJ/mol
# GULP energy per Si atom -5590.056139 kJ/mol
# Density = 2.130294 g / cm^3
# Si number density = 21.351539 Si / 1000 Ang^3
#
#
#
# Elastic Constant Matrix: (Units=GPa)
#
#
# Indices 1 2 3 4 5 6 
#
# 1 81.3002 -9.0773 8.0500 9.3276 0.0000 0.0000
# 2 -9.0773 81.3002 8.0500 -9.3276 0.0000 0.0000
# 3 8.0500 8.0500 135.1475 0.0000 0.0000 0.0000
# 4 9.3276 -9.3276 0.0000 73.2054 0.0000 0.0000
# 5 0.0000 0.0000 0.0000 0.0000 73.2054 9.3276
# 6 0.0000 0.0000 0.0000 0.0000 9.3276 45.1887
#
#
#
# Elastic Compliance Matrix: (Units=1/GPa)
#
#
# Indices 1 2 3 4 5 6 
#
# 1 0.012698 0.001334 -0.000836 -0.001448 0.000000 0.000000
# 2 0.001334 0.012698 -0.000836 0.001448 0.000000 0.000000
# 3 -0.000836 -0.000836 0.007499 0.000000 0.000000 0.000000
# 4 -0.001448 0.001448 0.000000 0.014029 0.000000 0.000000
# 5 0.000000 0.000000 0.000000 0.000000 0.014029 -0.002896
# 6 0.000000 0.000000 0.000000 0.000000 -0.002896 0.022727
#
#
# Mechanical properties :
#
#
# Convention : Reuss Voigt Hill
#
# Bulk Modulus (GPa) = 31.03635 34.64368 32.84002
# Shear Modulus (GPa) = 52.57902 57.70159 55.14030
#
# Velocity S-wave (km/s) = 4.96778 5.20415 5.08734
# Velocity P-wave (km/s) = 6.89004 7.23682 7.06556
#
# Compressibility (1/GPa) = 0.03222028
#
# Stress axis : x y z
#
# Youngs Moduli (GPa) = 78.75277 78.75277 133.35294
#
# Poissons Ratio (x) = -0.10509 0.11146
# Poissons Ratio (y) = -0.10509 0.11146
# Poissons Ratio (z) = 0.06582 0.06582
#
# Static dielectric constant tensor:
#      x y z
#    x 1.849220 0.000000 0.000000 
#    y 0.000000 1.849220 0.000000 
#    z 0.000000 0.000000 1.831470 
# 
# From -- ./inp_files/2273.got.cif
#   From: 2010.05.17/outbox.cif.g08.bks.cpg/sg165_2_cif.got.tgz:2273.got - 2010.05.20 11:02:39.
