data_PCOD9578029
_publ_section_title
;
Structure prediction by ZEFSAII (Michael W. Deem and Ramdas Pophale) SiO2 
 PCOD9578029
Probable space group: P -3 1 C
;
_chemical_formula_sum "Si O2"
_cell_formula_units_Z 54
_cell_length_a 23.906700
_cell_length_b 23.906700
_cell_length_c 5.424798
_cell_angle_alpha 90.000000
_cell_angle_beta 90.000000
_cell_angle_gamma 120.000000
_cell_volume 2685.056733
_symmetry_space_group_name_H-M "P -3 1 C"
_symmetry_group_IT_number 163
_symmetry_cell_setting 'hexagonal'
loop_
_space_group_symop_operation_xyz
x,y,z
-y,x-y,z
-x+y,-x,z
-y,-x,1/2-z
-x+y,y,1/2-z
x,x-y,1/2-z
-x,-y,-z
y,-x+y,-z
x-y,x,-z
y,x,1/2+z
x-y,-y,1/2+z
-x,-x+y,1/2+z
loop_
_atom_site_type_symbol
_atom_site_label
_atom_site_fract_x
_atom_site_fract_y
_atom_site_fract_z
Si Si1 0.014961 0.708901 0.034458
Si Si2 0.595862 0.560592 0.439190
Si Si3 0.306565 0.549629 0.003402
Si Si4 0.834864 0.606148 0.502324
Si Si5 0.854171 0.427086 0.250000
O O1 0.004097 0.734879 0.288099
O O2 0.969358 0.630422 0.049873
O O3 0.088518 0.725635 0.014363
O O4 0.567516 0.555432 0.712378
O O5 0.600718 0.498763 0.361291
O O6 0.284020 0.568040 0.750000
O O7 0.269980 0.471500 0.008600
O O8 0.380929 0.571918 0.964943
O O9 0.285591 0.571181 0.250000
O O10 0.812316 0.624631 0.250000
O O11 0.813594 0.627187 0.750000
#
# Coordination Sequence:
#
# PCOD9578029 Si02
#       5
#    12  12  12  12   6
#     4  10  19  33  53  82 114 141 173 230 279 328
#     4  10  22  35  55  91 121 140 164 214 298 382
#     4  10  24  41  58  81  99 135 186 233 281 366
#     4  10  20  36  56  78 113 152 186 214 270 356
#     4  12  24  42  66  84 114 146 182 242 326 384
#
# _framework density 20.111308999999999
#
# number of rings (size 3 to 8) (size 9 to 14) (size 15 to 20)
#    0.000    1.778    0.000    4.667    0.000   13.333 
#    0.667    0.000    0.000    0.000    0.000    0.000 
#    0.000    0.000    0.000    0.000    0.000    0.000 
#
# Total GULP energy -301830.021445 kJ/mol
# GULP energy per Si atom -5589.444842 kJ/mol
# Density = 2.006553 g / cm^3
# Si number density = 20.111309 Si / 1000 Ang^3
#
#
#
# Elastic Constant Matrix: (Units=GPa)
#
#
# Indices 1 2 3 4 5 6 
#
# 1 52.9444 17.3024 21.2115 0.0002 -1.3283 0.0000
# 2 17.3024 52.9444 21.2115 -0.0002 1.3283 0.0000
# 3 21.2115 21.2115 165.5355 0.0000 0.0000 0.0000
# 4 0.0002 -0.0002 0.0000 4.4929 0.0000 1.3283
# 5 -1.3283 1.3283 0.0000 0.0000 4.4929 0.0002
# 6 0.0000 0.0000 0.0000 1.3283 0.0002 17.8210
#
#
#
# Elastic Compliance Matrix: (Units=1/GPa)
#
#
# Indices 1 2 3 4 5 6 
#
# 1 0.022059 -0.006630 -0.001977 -0.000001 0.008482 0.000000
# 2 -0.006630 0.022059 -0.001977 0.000001 -0.008482 0.000000
# 3 -0.001977 -0.001977 0.006548 0.000000 0.000000 0.000000
# 4 -0.000001 0.000001 0.000000 0.227587 0.000000 -0.016964
# 5 0.008482 -0.008482 0.000000 0.000000 0.227587 -0.000003
# 6 0.000000 0.000000 0.000000 -0.016964 -0.000003 0.057378
#
#
# Mechanical properties :
#
#
# Convention : Reuss Voigt Hill
#
# Bulk Modulus (GPa) = 33.90029 43.43056 38.66542
# Shear Modulus (GPa) = 8.41440 19.47462 13.94451
#
# Velocity S-wave (km/s) = 2.04768 3.11520 2.63604
# Velocity P-wave (km/s) = 4.74169 5.88058 5.34157
#
# Compressibility (1/GPa) = 0.02949827
#
# Stress axis : x y z
#
# Youngs Moduli (GPa) = 45.33239 45.33239 152.72558
#
# Poissons Ratio (x) = 0.30054 0.30196
# Poissons Ratio (y) = 0.30054 0.30196
# Poissons Ratio (z) = 0.08963 0.08963
#
# Static dielectric constant tensor:
#      x y z
#    x 1.715400 0.000000 0.000000 
#    y 0.000000 1.715400 0.000000 
#    z 0.000000 0.000000 1.831090 
# 
# From -- ./inp_files/308.got.cif
#   From: 2010.05.17/outbox.cif.g08.bks.cpg/sg163_1_cif.got.tgz:308.got - 2010.05.20 10:56:03.
