data_PCOD9578074
_publ_section_title
;
Structure prediction by ZEFSAII (Michael W. Deem and Ramdas Pophale) SiO2 
 PCOD9578074
Probable space group: P -3 1 C
;
_chemical_formula_sum "Si O2"
_cell_formula_units_Z 58
_cell_length_a 14.101658
_cell_length_b 14.101658
_cell_length_c 14.370861
_cell_angle_alpha 90.000000
_cell_angle_beta 90.000000
_cell_angle_gamma 120.000000
_cell_volume 2474.877891
_symmetry_space_group_name_H-M "P -3 1 C"
_symmetry_group_IT_number 163
_symmetry_cell_setting 'hexagonal'
loop_
_space_group_symop_operation_xyz
x,y,z
-y,x-y,z
-x+y,-x,z
-y,-x,1/2-z
-x+y,y,1/2-z
x,x-y,1/2-z
-x,-y,-z
y,-x+y,-z
x-y,x,-z
y,x,1/2+z
x-y,-y,1/2+z
-x,-x+y,1/2+z
loop_
_atom_site_type_symbol
_atom_site_label
_atom_site_fract_x
_atom_site_fract_y
_atom_site_fract_z
Si Si1 0.930273 0.069728 0.750000
Si Si2 0.774102 0.540404 0.551105
Si Si3 0.959410 0.378147 0.694564
Si Si4 0.272966 0.026543 0.870163
Si Si5 0.809585 0.583280 0.357030
Si Si6 0.666667 0.333333 0.859260
O O1 0.059653 0.119306 0.750000
O O2 0.914825 0.118409 0.844345
O O3 0.695371 0.561393 0.619329
O O4 0.739077 0.511663 0.444278
O O5 0.771800 0.438022 0.600411
O O6 0.897737 0.643101 0.551574
O O7 0.956749 0.478375 0.750000
O O8 0.952159 0.298244 0.777930
O O9 0.073941 0.411740 0.644064
O O10 0.203261 0.894760 0.876767
O O11 0.774618 0.549236 0.250000
O O12 0.666668 0.333334 0.750000
#
# Coordination Sequence:
#
# PCOD9578074 Si02
#       6
#     6  12  12  12  12   4
#     4  10  20  34  64 100 138 184 218 276 350 414
#     4  12  23  42  69 101 138 182 236 296 353 425
#     4  11  22  41  70 101 138 186 235 294 357 424
#     4  11  21  41  66  98 141 181 234 290 356 421
#     4  10  25  43  64  97 140 187 234 284 353 422
#     4  12  27  45  70 110 136 168 231 300 364 413
#
# _framework density 23.435500999999999
#
# number of rings (size 3 to 8) (size 9 to 14) (size 15 to 20)
#    0.207    0.828    2.069    6.207    0.000    3.310 
#    0.000    7.241    0.000   12.414    0.000    0.000 
#    0.000    0.000    0.000    0.000    0.000    0.000 
#
# Total GULP energy -322981.333582 kJ/mol
# GULP energy per Si atom -5568.643682 kJ/mol
# Density = 2.338216 g / cm^3
# Si number density = 23.435501 Si / 1000 Ang^3
#
#
#
# Elastic Constant Matrix: (Units=GPa)
#
#
# Indices 1 2 3 4 5 6 
#
# 1 79.7018 30.2565 35.2361 -0.0004 -0.3130 -0.0001
# 2 30.2565 79.7019 35.2366 0.0002 0.3129 0.0004
# 3 35.2361 35.2366 153.3806 0.0002 0.0002 0.0003
# 4 -0.0004 0.0002 0.0002 26.9512 0.0004 0.3131
# 5 -0.3130 0.3129 0.0002 0.0004 26.9509 0.0002
# 6 -0.0001 0.0004 0.0003 0.3131 0.0002 24.7229
#
#
#
# Elastic Compliance Matrix: (Units=1/GPa)
#
#
# Indices 1 2 3 4 5 6 
#
# 1 0.015446 -0.004781 -0.002450 0.000000 0.000235 0.000000
# 2 -0.004781 0.015446 -0.002450 0.000000 -0.000235 0.000000
# 3 -0.002450 -0.002450 0.007645 0.000000 0.000000 0.000000
# 4 0.000000 0.000000 0.000000 0.037110 0.000000 -0.000470
# 5 0.000235 -0.000235 0.000000 0.000000 0.037110 0.000000
# 6 0.000000 0.000000 0.000000 -0.000470 0.000000 0.040454
#
#
# Mechanical properties :
#
#
# Convention : Reuss Voigt Hill
#
# Bulk Modulus (GPa) = 52.15236 57.13807 54.64521
# Shear Modulus (GPa) = 27.93838 29.86201 28.90020
#
# Velocity S-wave (km/s) = 3.45648 3.57350 3.51548
# Velocity P-wave (km/s) = 6.18317 6.43898 6.31237
#
# Compressibility (1/GPa) = 0.01917459
#
# Stress axis : x y z
#
# Youngs Moduli (GPa) = 64.74198 64.74186 130.79751
#
# Poissons Ratio (x) = 0.30956 0.32045
# Poissons Ratio (y) = 0.30956 0.32046
# Poissons Ratio (z) = 0.15861 0.15862
#
# Static dielectric constant tensor:
#      x y z
#    x 2.077290 0.000000 0.000000 
#    y 0.000000 2.077290 0.000000 
#    z 0.000000 0.000000 1.924360 
# 
# From -- ./inp_files/2452.got.cif
#   From: 2010.05.17/outbox.cif.g08.bks.cpg/sg163_2_cif.got.tgz:2452.got - 2010.05.20 10:56:03.
