data_PCOD9578351
_publ_section_title
;
Structure prediction by ZEFSAII (Michael W. Deem and Ramdas Pophale) SiO2 
 PCOD9578351
Probable space group: P -3 M 1
;
_chemical_formula_sum "Si O2"
_cell_formula_units_Z 84
_cell_length_a 16.884131
_cell_length_b 16.884131
_cell_length_c 22.820253
_cell_angle_alpha 90.000000
_cell_angle_beta 90.000000
_cell_angle_gamma 120.000000
_cell_volume 5633.891940
_symmetry_space_group_name_H-M "P -3 M 1"
_symmetry_group_IT_number 164
_symmetry_cell_setting 'hexagonal'
loop_
_space_group_symop_operation_xyz
x,y,z
-y,x-y,z
-x+y,-x,z
x-y,-y,-z
-x,-x+y,-z
y,x,-z
-x,-y,-z
y,-x+y,-z
x-y,x,-z
-x+y,y,z
x,x-y,z
-y,-x,z
loop_
_atom_site_type_symbol
_atom_site_label
_atom_site_fract_x
_atom_site_fract_y
_atom_site_fract_z
Si Si1 0.900101 0.619441 0.016745
Si Si2 0.999419 0.810484 0.566100
Si Si3 0.626149 0.958311 0.856066
Si Si4 0.706290 0.757382 0.681078
Si Si5 0.151061 0.666204 0.102524
Si Si6 0.812185 0.812826 0.200550
Si Si7 0.520848 0.855529 0.740122
O O1 0.824476 0.648951 0.015830
O O2 0.908374 0.589492 0.081887
O O3 0.873043 0.544169 0.965865
O O4 0.000000 0.700340 0.000000
O O5 0.088189 0.911812 0.570486
O O6 0.006035 0.751080 0.618545
O O7 0.000000 0.777051 0.500000
O O8 0.908598 0.817196 0.573182
O O9 0.727502 0.974313 0.842791
O O10 0.560401 0.898616 0.803950
O O11 0.638550 0.058814 0.861863
O O12 0.705302 0.852651 0.681182
O O13 0.773023 0.769046 0.735116
O O14 0.603014 0.681530 0.696405
O O15 0.178265 0.589133 0.110151
O O16 0.234093 0.765908 0.118483
O O17 0.916339 0.832677 0.200804
O O18 0.807480 0.903740 0.187334
O O19 0.426231 0.852462 0.728904
O O20 0.509653 0.754827 0.737502
#
# Coordination Sequence:
#
# PCOD9578351 Si02
#       7
#    12  12  12  12  12  12  12
#     4   9  18  31  46  62  82 108 136 167 207 256
#     4   9  15  23  38  62  92 123 152 179 207 244
#     4  10  19  32  47  64  87 114 140 169 213 265
#     4   8  16  28  40  58  85 116 145 174 211 252
#     4  10  20  33  49  67  85 106 134 170 211 257
#     4  10  18  28  43  63  89 119 151 182 208 241
#     4  10  19  31  47  65  85 109 141 181 221 260
#
# _framework density 14.909763999999999
#
# number of rings (size 3 to 8) (size 9 to 14) (size 15 to 20)
#    0.000    2.571    0.000    4.000    0.000    4.286 
#    0.000    1.429    0.000    2.286    0.000    0.000 
#    0.000    0.000    0.000    0.429    0.000    7.286 
#
# Total GULP energy -467957.447094 kJ/mol
# GULP energy per Si atom -5570.921989 kJ/mol
# Density = 1.487583 g / cm^3
# Si number density = 14.909764 Si / 1000 Ang^3
#
#
#
# Elastic Constant Matrix: (Units=GPa)
#
#
# Indices 1 2 3 4 5 6 
#
# 1 54.7176 16.0051 7.5588 3.9494 0.0000 0.0000
# 2 16.0051 54.7176 7.5588 -3.9494 0.0000 0.0000
# 3 7.5588 7.5588 57.4034 0.0000 0.0000 0.0000
# 4 3.9494 -3.9494 0.0000 10.2602 0.0000 0.0000
# 5 0.0000 0.0000 0.0000 0.0000 10.2602 3.9494
# 6 0.0000 0.0000 0.0000 0.0000 3.9494 19.3562
#
#
#
# Elastic Compliance Matrix: (Units=1/GPa)
#
#
# Indices 1 2 3 4 5 6 
#
# 1 0.021291 -0.006742 -0.001916 -0.010791 0.000000 0.000000
# 2 -0.006742 0.021291 -0.001916 0.010791 0.000000 0.000000
# 3 -0.001916 -0.001916 0.017925 0.000000 0.000000 0.000000
# 4 -0.010791 0.010791 0.000000 0.105771 0.000000 0.000000
# 5 0.000000 0.000000 0.000000 0.000000 0.105771 -0.021582
# 6 0.000000 0.000000 0.000000 0.000000 -0.021582 0.056066
#
#
# Mechanical properties :
#
#
# Convention : Reuss Voigt Hill
#
# Bulk Modulus (GPa) = 25.40628 25.45377 25.43003
# Shear Modulus (GPa) = 13.79752 17.02306 15.41029
#
# Velocity S-wave (km/s) = 3.04534 3.38263 3.21841
# Velocity P-wave (km/s) = 5.42609 5.68904 5.55912
#
# Compressibility (1/GPa) = 0.03936034
#
# Stress axis : x y z
#
# Youngs Moduli (GPa) = 46.96772 46.96772 55.78764
#
# Poissons Ratio (x) = 0.31666 0.10688
# Poissons Ratio (y) = 0.31666 0.10688
# Poissons Ratio (z) = 0.08998 0.08998
#
# Static dielectric constant tensor:
#      x y z
#    x 1.484540 0.000000 0.000000 
#    y 0.000000 1.484540 0.000000 
#    z 0.000000 0.000000 1.512150 
# 
# From -- ./inp_files/4668.got.cif
#   From: 2010.05.17/outbox.cif.g08.bks.cpg/sg164_3_cif.got.tgz:4668.got - 2010.05.20 10:58:56.
