data_PCOD9578730
_publ_section_title
;
Structure prediction by ZEFSAII (Michael W. Deem and Ramdas Pophale) SiO2 
 PCOD9578730
Probable space group: P -3 M 1
;
_chemical_formula_sum "Si O2"
_cell_formula_units_Z 48
_cell_length_a 26.406180
_cell_length_b 26.406180
_cell_length_c 5.090463
_cell_angle_alpha 90.000000
_cell_angle_beta 90.000000
_cell_angle_gamma 120.000000
_cell_volume 3073.966113
_symmetry_space_group_name_H-M "P -3 M 1"
_symmetry_group_IT_number 164
_symmetry_cell_setting 'hexagonal'
loop_
_space_group_symop_operation_xyz
x,y,z
-y,x-y,z
-x+y,-x,z
x-y,-y,-z
-x,-x+y,-z
y,x,-z
-x,-y,-z
y,-x+y,-z
x-y,x,-z
-x+y,y,z
x,x-y,z
-y,-x,z
loop_
_atom_site_type_symbol
_atom_site_label
_atom_site_fract_x
_atom_site_fract_y
_atom_site_fract_z
Si Si1 0.304792 0.373632 0.574416
Si Si2 0.334758 0.226876 0.914607
Si Si3 0.464950 0.041859 0.248094
Si Si4 0.158957 0.959893 0.245128
O O1 0.336942 0.336942 0.500000
O O2 0.271698 0.374309 0.312176
O O3 0.355031 0.436281 0.684696
O O4 0.259438 0.342964 0.810306
O O5 0.347024 0.173512 0.945323
O O6 0.267774 0.198981 0.820476
O O7 0.534344 0.068688 0.204121
O O8 0.448222 0.000000 0.500000
O O9 0.432444 0.000000 0.000000
O O10 0.093736 0.906265 0.285651
O O11 0.182862 0.000000 0.500000
O O12 0.163687 0.000000 0.000000
#
# Coordination Sequence:
#
# PCOD9578730 Si02
#       4
#    12  12  12  12
#     4  11  19  31  49  67  91 126 160 187 220 268
#     4  11  22  33  47  69  95 123 155 191 230 272
#     4   9  17  28  43  66  93 121 153 185 214 247
#     4  11  22  36  53  70  89 112 143 185 231 283
#
# _framework density 15.615005999999999
#
# number of rings (size 3 to 8) (size 9 to 14) (size 15 to 20)
#    0.000    1.500    0.000    9.000    0.000    4.000 
#    0.000    0.000    0.000    5.000    0.000    0.000 
#    0.000    0.000    0.000   15.000    0.000    0.250 
#
# Total GULP energy -267905.171874 kJ/mol
# GULP energy per Si atom -5581.357747 kJ/mol
# Density = 1.557947 g / cm^3
# Si number density = 15.615006 Si / 1000 Ang^3
#
#
#
# Elastic Constant Matrix: (Units=GPa)
#
#
# Indices 1 2 3 4 5 6 
#
# 1 63.4223 44.4096 21.9540 -7.4792 0.0000 0.0000
# 2 44.4096 63.4223 21.9540 7.4792 0.0000 0.0000
# 3 21.9540 21.9540 108.9232 0.0000 0.0000 0.0000
# 4 -7.4792 7.4792 0.0000 15.8060 0.0000 0.0000
# 5 0.0000 0.0000 0.0000 0.0000 15.8060 -7.4792
# 6 0.0000 0.0000 0.0000 0.0000 -7.4792 9.5064
#
#
#
# Elastic Compliance Matrix: (Units=1/GPa)
#
#
# Indices 1 2 3 4 5 6 
#
# 1 0.046946 -0.036843 -0.002036 0.039648 0.000000 0.000000
# 2 -0.036843 0.046946 -0.002036 -0.039648 0.000000 0.000000
# 3 -0.002036 -0.002036 0.010002 0.000000 0.000000 0.000000
# 4 0.039648 -0.039648 0.000000 0.100789 0.000000 0.000000
# 5 0.000000 0.000000 0.000000 0.000000 0.100789 0.079296
# 6 0.000000 0.000000 0.000000 0.000000 0.079296 0.167579
#
#
# Mechanical properties :
#
#
# Convention : Reuss Voigt Hill
#
# Bulk Modulus (GPa) = 45.32639 45.82256 45.57448
# Shear Modulus (GPa) = 8.89305 18.05369 13.47337
#
# Velocity S-wave (km/s) = 2.38905 3.40395 2.94061
# Velocity P-wave (km/s) = 6.05810 6.69762 6.38587
#
# Compressibility (1/GPa) = 0.02206220
#
# Stress axis : x y z
#
# Youngs Moduli (GPa) = 21.30095 21.30095 99.98375
#
# Poissons Ratio (x) = 0.78480 0.20360
# Poissons Ratio (y) = 0.78480 0.20360
# Poissons Ratio (z) = 0.04337 0.04337
#
# Static dielectric constant tensor:
#      x y z
#    x 1.535940 0.000000 0.000000 
#    y 0.000000 1.535940 0.000000 
#    z 0.000000 0.000000 1.523370 
# 
# From -- ./inp_files/487.got.cif
#   From: 2010.05.17/outbox.cif.g08.bks.cpg/sg164_1_cif.got.tgz:487.got - 2010.05.20 10:58:56.
