data_PCOD9578076
_publ_section_title
;
Structure prediction by ZEFSAII (Michael W. Deem and Ramdas Pophale) SiO2 
 PCOD9578076
Probable space group: P -3 1 C
;
_chemical_formula_sum "Si O2"
_cell_formula_units_Z 36
_cell_length_a 20.828722
_cell_length_b 20.828722
_cell_length_c 4.831958
_cell_angle_alpha 90.000000
_cell_angle_beta 90.000000
_cell_angle_gamma 120.000000
_cell_volume 1815.428000
_symmetry_space_group_name_H-M "P -3 1 C"
_symmetry_group_IT_number 163
_symmetry_cell_setting 'hexagonal'
loop_
_space_group_symop_operation_xyz
x,y,z
-y,x-y,z
-x+y,-x,z
-y,-x,1/2-z
-x+y,y,1/2-z
x,x-y,1/2-z
-x,-y,-z
y,-x+y,-z
x-y,x,-z
y,x,1/2+z
x-y,-y,1/2+z
-x,-x+y,1/2+z
loop_
_atom_site_type_symbol
_atom_site_label
_atom_site_fract_x
_atom_site_fract_y
_atom_site_fract_z
Si Si1 0.950446 0.186554 0.369893
Si Si2 0.401044 0.245079 0.012220
Si Si3 0.398995 0.448199 0.252003
O O1 0.893874 0.106127 0.250000
O O2 0.907849 0.232958 0.349766
O O3 0.976083 0.195116 0.685264
O O4 0.380779 0.190390 0.750000
O O5 0.444346 0.326482 0.879524
O O6 0.437782 0.218891 0.250000
O O7 0.468728 0.531273 0.250000
O O8 0.419043 0.396799 0.444053
#
# Coordination Sequence:
#
# PCOD9578076 Si02
#       3
#    12  12  12
#     4  11  21  35  54  77 106 139 177 223 274 327
#     4  11  21  34  54  83 113 144 182 228 280 329
#     4  10  20  35  56  82 114 150 186 227 277 333
#
# _framework density 19.830034000000001
#
# number of rings (size 3 to 8) (size 9 to 14) (size 15 to 20)
#    0.000    1.333    0.000    9.000    0.000    0.000 
#    0.000    0.000    0.000    7.333    0.000    7.000 
#    0.000    0.000    0.000    0.000    0.000    0.000 
#
# Total GULP energy -200972.106590 kJ/mol
# GULP energy per Si atom -5582.558516 kJ/mol
# Density = 1.978490 g / cm^3
# Si number density = 19.830034 Si / 1000 Ang^3
#
#
#
# Elastic Constant Matrix: (Units=GPa)
#
#
# Indices 1 2 3 4 5 6 
#
# 1 83.4559 46.5447 26.0069 0.0004 0.0199 0.0000
# 2 46.5447 83.4559 26.0069 -0.0004 -0.0199 0.0000
# 3 26.0069 26.0069 97.3084 0.0000 0.0000 0.0000
# 4 0.0004 -0.0004 0.0000 34.9985 0.0000 -0.0199
# 5 0.0199 -0.0199 0.0000 0.0000 34.9985 0.0004
# 6 0.0000 0.0000 0.0000 -0.0199 0.0004 18.4556
#
#
#
# Elastic Compliance Matrix: (Units=1/GPa)
#
#
# Indices 1 2 3 4 5 6 
#
# 1 0.017853 -0.009239 -0.002302 0.000000 -0.000015 0.000000
# 2 -0.009239 0.017853 -0.002302 0.000000 0.000015 0.000000
# 3 -0.002302 -0.002302 0.011507 0.000000 0.000000 0.000000
# 4 0.000000 0.000000 0.000000 0.028573 0.000000 0.000031
# 5 -0.000015 0.000015 0.000000 0.000000 0.028573 -0.000001
# 6 0.000000 0.000000 0.000000 0.000031 -0.000001 0.054184
#
#
# Mechanical properties :
#
#
# Convention : Reuss Voigt Hill
#
# Bulk Modulus (GPa) = 51.21464 51.25967 51.23715
# Shear Modulus (GPa) = 25.94203 28.73464 27.33833
#
# Velocity S-wave (km/s) = 3.62086 3.81076 3.71702
# Velocity P-wave (km/s) = 6.58511 6.72816 6.65702
#
# Compressibility (1/GPa) = 0.01952567
#
# Stress axis : x y z
#
# Youngs Moduli (GPa) = 56.01390 56.01390 86.90298
#
# Poissons Ratio (x) = 0.51753 0.20005
# Poissons Ratio (y) = 0.51753 0.20005
# Poissons Ratio (z) = 0.12894 0.12894
#
# Static dielectric constant tensor:
#      x y z
#    x 1.705910 0.000000 0.000000 
#    y 0.000000 1.705910 0.000000 
#    z 0.000000 0.000000 1.709880 
# 
# From -- ./inp_files/166.got.cif
#   From: 2010.05.17/outbox.cif.g08.bks.cpg/sg163_1_cif.got.tgz:166.got - 2010.05.20 10:56:03.
