data_PCOD9578695
_publ_section_title
;
Structure prediction by ZEFSAII (Michael W. Deem and Ramdas Pophale) SiO2 
 PCOD9578695
Probable space group: P -3 M 1
;
_chemical_formula_sum "Si O2"
_cell_formula_units_Z 66
_cell_length_a 22.647573
_cell_length_b 22.647573
_cell_length_c 8.008002
_cell_angle_alpha 90.000000
_cell_angle_beta 90.000000
_cell_angle_gamma 120.000000
_cell_volume 3557.116925
_symmetry_space_group_name_H-M "P -3 M 1"
_symmetry_group_IT_number 164
_symmetry_cell_setting 'hexagonal'
loop_
_space_group_symop_operation_xyz
x,y,z
-y,x-y,z
-x+y,-x,z
x-y,-y,-z
-x,-x+y,-z
y,x,-z
-x,-y,-z
y,-x+y,-z
x-y,x,-z
-x+y,y,z
x,x-y,z
-y,-x,z
loop_
_atom_site_type_symbol
_atom_site_label
_atom_site_fract_x
_atom_site_fract_y
_atom_site_fract_z
Si Si1 0.468189 0.802315 0.465436
Si Si2 0.666417 0.196669 0.130729
Si Si3 0.249135 0.249135 0.500000
Si Si4 0.077484 0.693052 0.981707
Si Si5 0.878191 0.616522 0.646183
Si Si6 0.807132 0.052635 0.152589
O O1 0.404923 0.809846 0.407622
O O2 0.459323 0.729662 0.411173
O O3 0.468732 0.802471 0.667157
O O4 0.541101 0.861381 0.403700
O O5 0.597692 0.195383 0.073977
O O6 0.734281 0.265720 0.074588
O O7 0.671178 0.131325 0.074711
O O8 0.322896 0.259538 0.542148
O O9 0.221284 0.203872 0.333222
O O10 0.074659 0.749052 0.862947
O O11 0.100833 0.728853 0.161134
O O12 0.000000 0.631561 0.000000
O O13 0.808935 0.617869 0.619595
O O14 0.880831 0.119170 0.137724
O O15 0.790907 0.000000 0.000000
#
# Coordination Sequence:
#
# PCOD9578695 Si02
#       6
#    12  12   6  12  12  12
#     4   9  19  35  57  83 112 152 201 256 311 365
#     4  10  20  36  58  83 114 155 206 258 311 369
#     4  12  22  38  61  92 125 164 206 250 306 370
#     4  11  22  39  59  85 122 160 200 253 312 364
#     4  11  22  37  59  86 118 155 199 249 305 366
#     4  11  23  40  65  96 129 164 205 253 305 362
#
# _framework density 18.554352000000002
#
# number of rings (size 3 to 8) (size 9 to 14) (size 15 to 20)
#    0.000    1.455    3.636    3.636    0.000    4.727 
#    0.000    0.455    0.000    2.364    0.000    0.636 
#    0.000    0.000    0.000    0.000    0.000    0.000 
#
# Total GULP energy -368678.035739 kJ/mol
# GULP energy per Si atom -5586.030845 kJ/mol
# Density = 1.851212 g / cm^3
# Si number density = 18.554352 Si / 1000 Ang^3
#
#
#
# Elastic Constant Matrix: (Units=GPa)
#
#
# Indices 1 2 3 4 5 6 
#
# 1 110.6857 71.0695 29.4563 -3.0253 0.0000 0.0000
# 2 71.0695 110.6857 29.4563 3.0253 0.0000 0.0000
# 3 29.4563 29.4563 80.0716 0.0000 0.0000 0.0000
# 4 -3.0253 3.0253 0.0000 16.0123 0.0000 0.0000
# 5 0.0000 0.0000 0.0000 0.0000 16.0123 -3.0253
# 6 0.0000 0.0000 0.0000 0.0000 -3.0253 19.8081
#
#
#
# Elastic Compliance Matrix: (Units=1/GPa)
#
#
# Indices 1 2 3 4 5 6 
#
# 1 0.016120 -0.009873 -0.002298 0.004911 0.000000 0.000000
# 2 -0.009873 0.016120 -0.002298 -0.004911 0.000000 0.000000
# 3 -0.002298 -0.002298 0.014180 0.000000 0.000000 0.000000
# 4 0.004911 -0.004911 0.000000 0.064308 0.000000 0.000000
# 5 0.000000 0.000000 0.000000 0.000000 0.064308 0.009822
# 6 0.000000 0.000000 0.000000 0.000000 0.009822 0.051984
#
#
# Mechanical properties :
#
#
# Convention : Reuss Voigt Hill
#
# Bulk Modulus (GPa) = 57.20492 62.37859 59.79175
# Shear Modulus (GPa) = 19.09979 21.79727 20.44853
#
# Velocity S-wave (km/s) = 3.21190 3.43122 3.32337
# Velocity P-wave (km/s) = 6.68229 7.02781 6.85723
#
# Compressibility (1/GPa) = 0.01748102
#
# Stress axis : x y z
#
# Youngs Moduli (GPa) = 62.03664 62.03664 70.52388
#
# Poissons Ratio (x) = 0.61247 0.16207
# Poissons Ratio (y) = 0.61247 0.16207
# Poissons Ratio (z) = 0.14256 0.14256
#
# Static dielectric constant tensor:
#      x y z
#    x 1.628420 0.000000 0.000000 
#    y 0.000000 1.628420 0.000000 
#    z 0.000000 0.000000 1.669620 
# 
# From -- ./inp_files/1679.got.cif
#   From: 2010.05.17/outbox.cif.g08.bks.cpg/sg164_1_cif.got.tgz:1679.got - 2010.05.20 10:58:56.
