data_PCOD9578324
_publ_section_title
;
Structure prediction by ZEFSAII (Michael W. Deem and Ramdas Pophale) SiO2 
 PCOD9578324
Probable space group: P -3 M 1
;
_chemical_formula_sum "Si O2"
_cell_formula_units_Z 66
_cell_length_a 29.472088
_cell_length_b 29.472088
_cell_length_c 5.559026
_cell_angle_alpha 90.000000
_cell_angle_beta 90.000000
_cell_angle_gamma 120.000000
_cell_volume 4181.683388
_symmetry_space_group_name_H-M "P -3 M 1"
_symmetry_group_IT_number 164
_symmetry_cell_setting 'hexagonal'
loop_
_space_group_symop_operation_xyz
x,y,z
-y,x-y,z
-x+y,-x,z
x-y,-y,-z
-x,-x+y,-z
y,x,-z
-x,-y,-z
y,-x+y,-z
x-y,x,-z
-x+y,y,z
x,x-y,z
-y,-x,z
loop_
_atom_site_type_symbol
_atom_site_label
_atom_site_fract_x
_atom_site_fract_y
_atom_site_fract_z
Si Si1 0.000000 0.376964 0.000000
Si Si2 0.333169 0.492976 0.406160
Si Si3 0.525263 0.950182 0.323737
Si Si4 0.489956 0.191073 0.097072
Si Si5 0.628083 0.867808 0.355349
Si Si6 0.371013 0.093627 0.147307
O O1 0.036822 0.365485 0.830862
O O2 0.960433 0.390046 0.862115
O O3 0.386292 0.491274 0.445996
O O4 0.322115 0.516326 0.644922
O O5 0.284782 0.433222 0.377053
O O6 0.332655 0.515896 0.143105
O O7 0.474015 0.948030 0.212122
O O8 0.550996 0.000000 0.500000
O O9 0.483450 0.241725 0.065473
O O10 0.432198 0.139484 0.127737
O O11 0.630755 0.815377 0.327539
O O12 0.651134 0.894346 0.612748
O O13 0.650439 0.902276 0.114427
#
# Coordination Sequence:
#
# PCOD9578324 Si02
#       6
#     6  12  12  12  12  12
#     4  12  21  34  46  60  92 116 164 176 208 256
#     4  10  18  31  44  66  85 105 141 172 210 238
#     4  11  23  35  47  60  84 128 164 183 202 243
#     4  10  17  30  49  68  85 104 131 171 221 256
#     4  10  17  30  46  65  84 103 134 174 220 253
#     4  10  19  27  45  63  84 111 136 174 204 245
#
# _framework density 15.783117000000001
#
# number of rings (size 3 to 8) (size 9 to 14) (size 15 to 20)
#    0.000    1.636    3.636    7.909    0.000    0.000 
#    0.000    0.000    0.000    0.000    0.000    0.000 
#    0.000    0.000    0.000   24.545    0.000    0.000 
#
# Total GULP energy -367672.065410 kJ/mol
# GULP energy per Si atom -5570.788870 kJ/mol
# Density = 1.574719 g / cm^3
# Si number density = 15.783117 Si / 1000 Ang^3
#
#
#
# Elastic Constant Matrix: (Units=GPa)
#
#
# Indices 1 2 3 4 5 6 
#
# 1 43.4577 20.4262 10.6677 -10.5161 0.0000 0.0000
# 2 20.4262 43.4577 10.6677 10.5161 0.0000 0.0000
# 3 10.6677 10.6677 129.2238 0.0000 0.0000 0.0000
# 4 -10.5161 10.5161 0.0000 16.0995 0.0000 0.0000
# 5 0.0000 0.0000 0.0000 0.0000 16.0995 -10.5161
# 6 0.0000 0.0000 0.0000 0.0000 -10.5161 11.5157
#
#
#
# Elastic Compliance Matrix: (Units=1/GPa)
#
#
# Indices 1 2 3 4 5 6 
#
# 1 0.061851 -0.045753 -0.001329 0.070286 0.000000 0.000000
# 2 -0.045753 0.061851 -0.001329 -0.070286 0.000000 0.000000
# 3 -0.001329 -0.001329 0.007958 0.000000 0.000000 0.000000
# 4 0.070286 -0.070286 0.000000 0.153935 0.000000 0.000000
# 5 0.000000 0.000000 0.000000 0.000000 0.153935 0.140573
# 6 0.000000 0.000000 0.000000 0.000000 0.140573 0.215208
#
#
# Mechanical properties :
#
#
# Convention : Reuss Voigt Hill
#
# Bulk Modulus (GPa) = 28.70520 33.29580 31.00050
# Shear Modulus (GPa) = 6.55160 20.36811 13.45985
#
# Velocity S-wave (km/s) = 2.03961 3.59625 2.92344
# Velocity P-wave (km/s) = 4.87580 6.19562 5.57490
#
# Compressibility (1/GPa) = 0.03483690
#
# Stress axis : x y z
#
# Youngs Moduli (GPa) = 16.16798 16.16798 125.66114
#
# Poissons Ratio (x) = 0.73974 0.16699
# Poissons Ratio (y) = 0.73974 0.16699
# Poissons Ratio (z) = 0.02148 0.02148
#
# Static dielectric constant tensor:
#      x y z
#    x 1.507230 0.000000 0.000000 
#    y 0.000000 1.507230 0.000000 
#    z 0.000000 0.000000 1.654010 
# 
# From -- ./inp_files/757.got.cif
#   From: 2010.05.17/outbox.cif.g08.bks.cpg/sg164_1_cif.got.tgz:757.got - 2010.05.20 10:58:56.
