data_PCOD9578513
_publ_section_title
;
Structure prediction by ZEFSAII (Michael W. Deem and Ramdas Pophale) SiO2 
 PCOD9578513
Probable space group: P -3 M 1
;
_chemical_formula_sum "Si O2"
_cell_formula_units_Z 84
_cell_length_a 21.283218
_cell_length_b 21.283218
_cell_length_c 11.558335
_cell_angle_alpha 90.000000
_cell_angle_beta 90.000000
_cell_angle_gamma 120.000000
_cell_volume 4534.198159
_symmetry_space_group_name_H-M "P -3 M 1"
_symmetry_group_IT_number 164
_symmetry_cell_setting 'hexagonal'
loop_
_space_group_symop_operation_xyz
x,y,z
-y,x-y,z
-x+y,-x,z
x-y,-y,-z
-x,-x+y,-z
y,x,-z
-x,-y,-z
y,-x+y,-z
x-y,x,-z
-x+y,y,z
x,x-y,z
-y,-x,z
loop_
_atom_site_type_symbol
_atom_site_label
_atom_site_fract_x
_atom_site_fract_y
_atom_site_fract_z
Si Si1 0.940673 0.542685 0.841300
Si Si2 0.189778 0.957666 0.881285
Si Si3 0.114773 0.487719 0.811547
Si Si4 0.265814 0.390633 0.982164
Si Si5 0.720228 0.134728 0.390130
Si Si6 0.719958 0.137373 0.657838
Si Si7 0.257494 0.003573 0.634367
O O1 0.922942 0.461471 0.876073
O O2 0.897622 0.542407 0.726927
O O3 0.027510 0.588054 0.828307
O O4 0.917023 0.586671 0.927317
O O5 0.110174 0.889827 0.869761
O O6 0.243431 0.926886 0.914505
O O7 0.211811 0.993088 0.752706
O O8 0.192899 0.000000 0.000000
O O9 0.137698 0.568849 0.840545
O O10 0.152313 0.454744 0.890236
O O11 0.130917 0.475627 0.682255
O O12 0.191577 0.383154 0.030866
O O13 0.797956 0.202045 0.355058
O O14 0.708180 0.144033 0.523269
O O15 0.723861 0.061546 0.369094
O O16 0.784748 0.215253 0.700567
O O17 0.747793 0.079033 0.656211
O O18 0.228774 0.000000 0.500000
#
# Coordination Sequence:
#
# PCOD9578513 Si02
#       7
#    12  12  12  12  12  12  12
#     4  11  22  35  52  78 111 143 187 240 288 344
#     4  11  22  36  58  88 122 157 195 238 290 353
#     4  11  21  33  53  79 106 140 183 232 281 336
#     4  11  21  35  56  78 107 144 185 233 289 346
#     4  10  19  34  54  78 110 146 182 228 285 345
#     4  10  20  34  55  80 110 145 182 230 287 342
#     4  10  19  34  56  85 119 151 190 234 289 355
#
# _framework density 18.525877999999999
#
# number of rings (size 3 to 8) (size 9 to 14) (size 15 to 20)
#    0.000    1.429    2.857    3.857    0.000    4.000 
#    0.000    1.429    0.000    8.143    0.000    0.000 
#    0.000    0.571    0.000    0.000    0.000    0.000 
#
# Total GULP energy -468164.676839 kJ/mol
# GULP energy per Si atom -5573.389010 kJ/mol
# Density = 1.848371 g / cm^3
# Si number density = 18.525878 Si / 1000 Ang^3
#
#
#
# Elastic Constant Matrix: (Units=GPa)
#
#
# Indices 1 2 3 4 5 6 
#
# 1 61.2146 -17.3516 11.4771 -42.7514 0.0000 0.0000
# 2 -17.3516 61.2146 11.4771 42.7514 0.0000 0.0000
# 3 11.4771 11.4771 100.2028 0.0000 0.0000 0.0000
# 4 -42.7514 42.7514 0.0000 110.0754 0.0000 0.0000
# 5 0.0000 0.0000 0.0000 0.0000 110.0754 -42.7514
# 6 0.0000 0.0000 0.0000 0.0000 -42.7514 39.2831
#
#
#
# Elastic Compliance Matrix: (Units=1/GPa)
#
#
# Indices 1 2 3 4 5 6 
#
# 1 0.023149 0.001103 -0.002778 0.008563 0.000000 0.000000
# 2 0.001103 0.023149 -0.002778 -0.008563 0.000000 0.000000
# 3 -0.002778 -0.002778 0.010616 0.000000 0.000000 0.000000
# 4 0.008563 -0.008563 0.000000 0.015736 0.000000 0.000000
# 5 0.000000 0.000000 0.000000 0.000000 0.015736 0.017125
# 6 0.000000 0.000000 0.000000 0.000000 0.017125 0.044093
#
#
# Mechanical properties :
#
#
# Convention : Reuss Voigt Hill
#
# Bulk Modulus (GPa) = 20.82953 25.98191 23.40572
# Shear Modulus (GPa) = 31.76860 66.35540 49.06200
#
# Velocity S-wave (km/s) = 4.14553 5.99128 5.15174
# Velocity P-wave (km/s) = 5.84652 7.86865 6.93172
#
# Compressibility (1/GPa) = 0.04800877
#
# Stress axis : x y z
#
# Youngs Moduli (GPa) = 43.19793 43.19793 94.19662
#
# Poissons Ratio (x) = -0.04763 0.26166
# Poissons Ratio (y) = -0.04763 0.26166
# Poissons Ratio (z) = 0.11999 0.11999
#
# Static dielectric constant tensor:
#      x y z
#    x 1.625990 0.000000 0.000000 
#    y 0.000000 1.625990 0.000000 
#    z 0.000000 0.000000 1.751600 
# 
# From -- ./inp_files/2914.got.cif
#   From: 2010.05.17/outbox.cif.g08.bks.cpg/sg164_2_cif.got.tgz:2914.got - 2010.05.20 10:58:56.
