data_PCOD9578282
_publ_section_title
;
Structure prediction by ZEFSAII (Michael W. Deem and Ramdas Pophale) SiO2 
 PCOD9578282
Probable space group: P -3 1 C
;
_chemical_formula_sum "Si O2"
_cell_formula_units_Z 48
_cell_length_a 16.428974
_cell_length_b 16.428974
_cell_length_c 9.328092
_cell_angle_alpha 90.000000
_cell_angle_beta 90.000000
_cell_angle_gamma 120.000000
_cell_volume 2180.440987
_symmetry_space_group_name_H-M "P -3 1 C"
_symmetry_group_IT_number 163
_symmetry_cell_setting 'hexagonal'
loop_
_space_group_symop_operation_xyz
x,y,z
-y,x-y,z
-x+y,-x,z
-y,-x,1/2-z
-x+y,y,1/2-z
x,x-y,1/2-z
-x,-y,-z
y,-x+y,-z
x-y,x,-z
y,x,1/2+z
x-y,-y,1/2+z
-x,-x+y,1/2+z
loop_
_atom_site_type_symbol
_atom_site_label
_atom_site_fract_x
_atom_site_fract_y
_atom_site_fract_z
Si Si1 0.829485 0.336415 0.664918
Si Si2 0.691919 0.712346 0.268296
Si Si3 0.838079 0.049207 0.481833
Si Si4 0.508047 0.922427 0.601414
O O1 0.736764 0.263237 0.750000
O O2 0.866344 0.433172 0.750000
O O3 0.905296 0.302981 0.679458
O O4 0.830039 0.359884 0.498264
O O5 0.779394 0.742763 0.162300
O O6 0.716701 0.791170 0.387917
O O7 0.657397 0.615246 0.352880
O O8 0.822727 0.947170 0.523248
O O9 0.453757 0.907514 0.750000
O O10 0.500000 0.000000 0.500000
#
# Coordination Sequence:
#
# PCOD9578282 Si02
#       4
#    12  12  12  12
#     4  12  25  45  71 103 148 190 238 296 378 441
#     4  12  23  42  71 104 132 178 250 292 351 431
#     4  12  26  45  66  99 143 187 235 297 366 434
#     4  12  21  44  74 106 140 188 241 308 365 435
#
# _framework density 22.013894000000001
#
# number of rings (size 3 to 8) (size 9 to 14) (size 15 to 20)
#    0.000    0.000    7.500    3.500    0.000    0.000 
#    0.000    3.750    0.000    0.000    0.000    0.000 
#    0.000    0.000    0.000    0.000    0.000    0.000 
#
# Total GULP energy -268494.526864 kJ/mol
# GULP energy per Si atom -5593.635976 kJ/mol
# Density = 2.196379 g / cm^3
# Si number density = 22.013894 Si / 1000 Ang^3
#
#
#
# Elastic Constant Matrix: (Units=GPa)
#
#
# Indices 1 2 3 4 5 6 
#
# 1 81.7005 46.9595 48.2456 -0.0001 6.9726 0.0000
# 2 46.9595 81.7005 48.2456 0.0001 -6.9726 0.0000
# 3 48.2456 48.2456 182.8877 0.0000 0.0000 0.0000
# 4 -0.0001 0.0001 0.0000 37.1548 0.0000 -6.9726
# 5 6.9726 -6.9726 0.0000 0.0000 37.1548 -0.0001
# 6 0.0000 0.0000 0.0000 -6.9726 -0.0001 17.3705
#
#
#
# Elastic Compliance Matrix: (Units=1/GPa)
#
#
# Indices 1 2 3 4 5 6 
#
# 1 0.020409 -0.010720 -0.002556 0.000000 -0.005842 0.000000
# 2 -0.010720 0.020409 -0.002556 0.000000 0.005842 0.000000
# 3 -0.002556 -0.002556 0.006816 0.000000 0.000000 0.000000
# 4 0.000000 0.000000 0.000000 0.029107 0.000000 0.011684
# 5 -0.005842 0.005842 0.000000 0.000000 0.029107 0.000000
# 6 0.000000 0.000000 0.000000 0.011684 0.000000 0.062259
#
#
# Mechanical properties :
#
#
# Convention : Reuss Voigt Hill
#
# Bulk Modulus (GPa) = 62.61357 70.35443 66.48400
# Shear Modulus (GPa) = 24.37884 31.85854 28.11869
#
# Velocity S-wave (km/s) = 3.33142 3.80834 3.57783
# Velocity P-wave (km/s) = 6.58045 7.16703 6.88000
#
# Compressibility (1/GPa) = 0.01597098
#
# Stress axis : x y z
#
# Youngs Moduli (GPa) = 48.99706 48.99706 146.70499
#
# Poissons Ratio (x) = 0.52525 0.37499
# Poissons Ratio (y) = 0.52525 0.37499
# Poissons Ratio (z) = 0.12524 0.12524
#
# Static dielectric constant tensor:
#      x y z
#    x 1.839860 0.000000 0.000000 
#    y 0.000000 1.839860 0.000000 
#    z 0.000000 0.000000 1.825690 
# 
# From -- ./inp_files/862.got.cif
#   From: 2010.05.17/outbox.cif.g08.bks.cpg/sg163_1_cif.got.tgz:862.got - 2010.05.20 10:56:03.
