data_PCOD9578655
_publ_section_title
;
Structure prediction by ZEFSAII (Michael W. Deem and Ramdas Pophale) SiO2 
 PCOD9578655
Probable space group: P -3 M 1
;
_chemical_formula_sum "Si O2"
_cell_formula_units_Z 48
_cell_length_a 18.093914
_cell_length_b 18.093914
_cell_length_c 9.488599
_cell_angle_alpha 90.000000
_cell_angle_beta 90.000000
_cell_angle_gamma 120.000000
_cell_volume 2690.281768
_symmetry_space_group_name_H-M "P -3 M 1"
_symmetry_group_IT_number 164
_symmetry_cell_setting 'hexagonal'
loop_
_space_group_symop_operation_xyz
x,y,z
-y,x-y,z
-x+y,-x,z
x-y,-y,-z
-x,-x+y,-z
y,x,-z
-x,-y,-z
y,-x+y,-z
x-y,x,-z
-x+y,y,z
x,x-y,z
-y,-x,z
loop_
_atom_site_type_symbol
_atom_site_label
_atom_site_fract_x
_atom_site_fract_y
_atom_site_fract_z
Si Si1 0.332694 0.491584 0.669328
Si Si2 0.999098 0.160724 0.169725
Si Si3 0.014474 0.337269 0.833731
Si Si4 0.909344 0.644171 0.572761
O O1 0.251650 0.503299 0.697092
O O2 0.419496 0.580505 0.667019
O O3 0.335797 0.426745 0.782158
O O4 0.315145 0.440242 0.522500
O O5 0.931502 0.068499 0.226941
O O6 0.966087 0.226443 0.194735
O O7 0.094427 0.188853 0.217941
O O8 0.000000 0.154455 0.000000
O O9 0.933342 0.305501 0.729521
O O10 0.000000 0.339034 0.000000
O O11 0.833359 0.666717 0.571200
O O12 0.000000 0.713297 0.500000
#
# Coordination Sequence:
#
# PCOD9578655 Si02
#       4
#    12  12  12  12
#     4  10  21  38  59  80 103 135 178 227 275 323
#     4   9  16  26  42  67 101 140 178 212 247 293
#     4  10  20  33  53  80 112 144 177 217 268 328
#     4   9  19  35  55  78 106 141 180 223 268 317
#
# _framework density 17.841996000000002
#
# number of rings (size 3 to 8) (size 9 to 14) (size 15 to 20)
#    0.000    2.500    0.000    2.000    0.000   10.000 
#    0.000    0.000    0.000    0.250    0.000    3.500 
#    0.000    0.000    0.000    0.000    0.000    0.000 
#
# Total GULP energy -267304.747096 kJ/mol
# GULP energy per Si atom -5568.848898 kJ/mol
# Density = 1.780139 g / cm^3
# Si number density = 17.841996 Si / 1000 Ang^3
#
#
#
# Elastic Constant Matrix: (Units=GPa)
#
#
# Indices 1 2 3 4 5 6 
#
# 1 131.6023 81.2120 48.5152 9.2672 0.0000 0.0000
# 2 81.2120 131.6023 48.5152 -9.2672 0.0000 0.0000
# 3 48.5152 48.5152 119.8459 0.0000 0.0000 0.0000
# 4 9.2672 -9.2672 0.0000 9.6660 0.0000 0.0000
# 5 0.0000 0.0000 0.0000 0.0000 9.6660 9.2672
# 6 0.0000 0.0000 0.0000 0.0000 9.2672 25.1951
#
#
#
# Elastic Compliance Matrix: (Units=1/GPa)
#
#
# Indices 1 2 3 4 5 6 
#
# 1 0.018209 -0.012446 -0.002333 -0.029391 0.000000 0.000000
# 2 -0.012446 0.018209 -0.002333 0.029391 0.000000 0.000000
# 3 -0.002333 -0.002333 0.010233 0.000000 0.000000 0.000000
# 4 -0.029391 0.029391 0.000000 0.159812 0.000000 0.000000
# 5 0.000000 0.000000 0.000000 0.000000 0.159812 -0.058781
# 6 0.000000 0.000000 0.000000 0.000000 -0.058781 0.061311
#
#
# Mechanical properties :
#
#
# Convention : Reuss Voigt Hill
#
# Bulk Modulus (GPa) = 80.47147 82.17059 81.32103
# Shear Modulus (GPa) = 10.73074 22.55929 16.64502
#
# Velocity S-wave (km/s) = 2.45507 3.55969 3.05767
# Velocity P-wave (km/s) = 7.29635 7.94039 7.62517
#
# Compressibility (1/GPa) = 0.01242676
#
# Stress axis : x y z
#
# Youngs Moduli (GPa) = 54.91784 54.91784 97.72586
#
# Poissons Ratio (x) = 0.68353 0.22797
# Poissons Ratio (y) = 0.68353 0.22797
# Poissons Ratio (z) = 0.12811 0.12811
#
# Static dielectric constant tensor:
#      x y z
#    x 1.608760 0.000000 0.000000 
#    y 0.000000 1.608760 0.000000 
#    z 0.000000 0.000000 1.644890 
# 
# From -- ./inp_files/1222.got.cif
#   From: 2010.05.17/outbox.cif.g08.bks.cpg/sg164_1_cif.got.tgz:1222.got - 2010.05.20 10:58:56.
