data_PCOD9578707
_publ_section_title
;
Structure prediction by ZEFSAII (Michael W. Deem and Ramdas Pophale) SiO2 
 PCOD9578707
Probable space group: P -3 M 1
;
_chemical_formula_sum "Si O2"
_cell_formula_units_Z 84
_cell_length_a 22.062103
_cell_length_b 22.062103
_cell_length_c 12.950276
_cell_angle_alpha 90.000000
_cell_angle_beta 90.000000
_cell_angle_gamma 120.000000
_cell_volume 5458.879047
_symmetry_space_group_name_H-M "P -3 M 1"
_symmetry_group_IT_number 164
_symmetry_cell_setting 'hexagonal'
loop_
_space_group_symop_operation_xyz
x,y,z
-y,x-y,z
-x+y,-x,z
x-y,-y,-z
-x,-x+y,-z
y,x,-z
-x,-y,-z
y,-x+y,-z
x-y,x,-z
-x+y,y,z
x,x-y,z
-y,-x,z
loop_
_atom_site_type_symbol
_atom_site_label
_atom_site_fract_x
_atom_site_fract_y
_atom_site_fract_z
Si Si1 0.999998 0.719571 0.375344
Si Si2 0.810423 0.333055 0.500004
Si Si3 0.861834 0.282511 0.306319
Si Si4 0.916258 0.386648 0.119533
Si Si5 0.470390 0.386648 0.880468
Si Si6 0.579329 0.861836 0.306314
Si Si7 0.860376 0.000000 0.374355
O O1 0.930723 0.651939 0.334560
O O2 0.999997 0.790133 0.344047
O O3 0.000000 0.716774 0.500000
O O4 0.069272 0.721215 0.334554
O O5 0.815300 0.407650 0.500011
O O6 0.729920 0.270080 0.500002
O O7 0.846320 0.321690 0.399215
O O8 0.846319 0.321683 0.600788
O O9 0.794628 0.205373 0.299055
O O10 0.875646 0.325822 0.201284
O O11 0.901899 0.450950 0.135656
O O12 0.000000 0.420129 0.133705
O O13 0.900008 0.364147 0.000000
O O14 0.549051 0.450950 0.864344
O O15 0.450175 0.325821 0.798718
O O16 0.589266 0.794633 0.299047
O O17 0.930066 0.069935 0.340212
O O18 0.861482 0.000000 0.500000
O O19 0.860126 0.930063 0.340213
#
# Coordination Sequence:
#
# PCOD9578707 Si02
#       7
#    12  12  12  12  12  12  12
#     4  11  20  33  47  69 104 142 168 207 253 299
#     4  10  21  35  51  73 102 136 170 205 247 298
#     4  11  21  33  51  76 104 135 172 207 251 307
#     4   9  18  34  55  76  99 129 166 209 256 302
#     4   9  18  34  55  76  99 129 166 209 256 302
#     4  11  21  33  51  76 104 135 172 207 251 307
#     4   9  17  28  45  65  90 128 173 213 248 289
#
# _framework density 15.387774
#
# number of rings (size 3 to 8) (size 9 to 14) (size 15 to 20)
#    0.000    2.000    2.857    2.857    0.000    2.286 
#    0.000    0.714    0.000    0.571    0.000    0.000 
#    0.000    0.000    0.000    0.000    0.000   10.143 
#
# Total GULP energy -468620.703519 kJ/mol
# GULP energy per Si atom -5578.817899 kJ/mol
# Density = 1.535275 g / cm^3
# Si number density = 15.387774 Si / 1000 Ang^3
#
#
#
# Elastic Constant Matrix: (Units=GPa)
#
#
# Indices 1 2 3 4 5 6 
#
# 1 136.3478 92.1476 68.6770 0.0008 0.0000 0.0000
# 2 92.1476 136.3478 68.6770 -0.0008 0.0000 0.0000
# 3 68.6770 68.6770 102.9383 0.0000 0.0000 0.0000
# 4 0.0008 -0.0008 0.0000 19.5824 0.0000 0.0000
# 5 0.0000 0.0000 0.0000 0.0000 19.5824 0.0008
# 6 0.0000 0.0000 0.0000 0.0000 0.0008 22.1001
#
#
#
# Elastic Compliance Matrix: (Units=1/GPa)
#
#
# Indices 1 2 3 4 5 6 
#
# 1 0.014966 -0.007659 -0.004875 -0.000001 0.000000 0.000000
# 2 -0.007659 0.014966 -0.004875 0.000001 0.000000 0.000000
# 3 -0.004875 -0.004875 0.016219 0.000000 0.000000 0.000000
# 4 -0.000001 0.000001 0.000000 0.051066 0.000000 0.000000
# 5 0.000000 0.000000 0.000000 0.000000 0.051066 -0.000002
# 6 0.000000 0.000000 0.000000 0.000000 -0.000002 0.045249
#
#
# Mechanical properties :
#
#
# Convention : Reuss Voigt Hill
#
# Bulk Modulus (GPa) = 88.23446 92.73746 90.48596
# Shear Modulus (GPa) = 21.53999 21.99515 21.76757
#
# Velocity S-wave (km/s) = 3.74547 3.78483 3.76520
# Velocity P-wave (km/s) = 8.72753 8.91615 8.82234
#
# Compressibility (1/GPa) = 0.01133344
#
# Stress axis : x y z
#
# Youngs Moduli (GPa) = 66.81999 66.81999 61.65495
#
# Poissons Ratio (x) = 0.51175 0.30056
# Poissons Ratio (y) = 0.51175 0.30056
# Poissons Ratio (z) = 0.32574 0.32574
#
# Static dielectric constant tensor:
#      x y z
#    x 1.494390 0.000000 0.000000 
#    y 0.000000 1.494390 0.000000 
#    z 0.000000 0.000000 1.489580 
# 
# From -- ./inp_files/2912.got.cif
#   From: 2010.05.17/outbox.cif.g08.bks.cpg/sg164_2_cif.got.tgz:2912.got - 2010.05.20 10:58:56.
