data_PCOD9578679
_publ_section_title
;
Structure prediction by ZEFSAII (Michael W. Deem and Ramdas Pophale) SiO2 
 PCOD9578679
Probable space group: P -3 M 1
;
_chemical_formula_sum "Si O2"
_cell_formula_units_Z 42
_cell_length_a 23.161225
_cell_length_b 23.161225
_cell_length_c 5.015769
_cell_angle_alpha 90.000000
_cell_angle_beta 90.000000
_cell_angle_gamma 120.000000
_cell_volume 2330.189333
_symmetry_space_group_name_H-M "P -3 M 1"
_symmetry_group_IT_number 164
_symmetry_cell_setting 'hexagonal'
loop_
_space_group_symop_operation_xyz
x,y,z
-y,x-y,z
-x+y,-x,z
x-y,-y,-z
-x,-x+y,-z
y,x,-z
-x,-y,-z
y,-x+y,-z
x-y,x,-z
-x+y,y,z
x,x-y,z
-y,-x,z
loop_
_atom_site_type_symbol
_atom_site_label
_atom_site_fract_x
_atom_site_fract_y
_atom_site_fract_z
Si Si1 0.136268 0.000000 0.500000
Si Si2 0.525049 0.474952 0.254737
Si Si3 0.748809 0.115524 0.937601
Si Si4 0.218154 0.218154 0.000000
Si Si5 0.339469 0.418494 0.554609
O O1 0.064657 0.935344 0.437686
O O2 0.185757 0.017459 0.248362
O O3 0.500000 0.500000 0.500000
O O4 0.486507 0.395796 0.305377
O O5 0.500000 0.500000 0.000000
O O6 0.813413 0.186588 0.910657
O O7 0.693057 0.109520 0.729059
O O8 0.769380 0.059036 0.898473
O O9 0.719021 0.102564 0.233080
O O10 0.374725 0.374725 0.500000
#
# Coordination Sequence:
#
# PCOD9578679 Si02
#       5
#     6   6  12   6  12
#     4  12  25  42  60  78 100 137 202 270 322 366
#     4  10  20  34  60  88 118 150 182 224 286 350
#     4  12  23  37  57  83 119 157 195 240 290 352
#     4  12  24  42  57  79 114 154 194 240 310 380
#     4  11  20  38  57  84 119 151 184 231 282 343
#
# _framework density 18.024286
#
# number of rings (size 3 to 8) (size 9 to 14) (size 15 to 20)
#    0.000    0.571    2.857    8.714    0.000    0.000 
#    0.000    1.429    0.000    0.000    0.000    0.000 
#   28.571    0.000    0.000    0.000    0.000    0.000 
#
# Total GULP energy -234390.604095 kJ/mol
# GULP energy per Si atom -5580.728669 kJ/mol
# Density = 1.798326 g / cm^3
# Si number density = 18.024286 Si / 1000 Ang^3
#
#
#
# Elastic Constant Matrix: (Units=GPa)
#
#
# Indices 1 2 3 4 5 6 
#
# 1 56.6551 40.0043 6.2265 -9.7910 0.0000 0.0000
# 2 40.0043 56.6551 6.2265 9.7910 0.0000 0.0000
# 3 6.2265 6.2265 99.5966 0.0000 0.0000 0.0000
# 4 -9.7910 9.7910 0.0000 -15.9774 0.0000 0.0000
# 5 0.0000 0.0000 0.0000 0.0000 -15.9774 -9.7910
# 6 0.0000 0.0000 0.0000 0.0000 -9.7910 8.3254
#
#
#
# Elastic Compliance Matrix: (Units=1/GPa)
#
#
# Indices 1 2 3 4 5 6 
#
# 1 0.022666 -0.012237 -0.000652 -0.021389 0.000000 0.000000
# 2 -0.012237 0.022666 -0.000652 0.021389 0.000000 0.000000
# 3 -0.000652 -0.000652 0.010122 0.000000 0.000000 0.000000
# 4 -0.021389 0.021389 0.000000 -0.036374 0.000000 0.000000
# 5 0.000000 0.000000 0.000000 0.000000 -0.036374 -0.042778
# 6 0.000000 0.000000 0.000000 0.000000 -0.042778 0.069806
#
#
# Mechanical properties :
#
#
# Convention : Reuss Voigt Hill
#
# Bulk Modulus (GPa) = 35.24461 35.31348 35.27905
# Shear Modulus (GPa) = 56.14691 5.97075 31.05883
#
# Velocity S-wave (km/s) = 5.58734 1.82203 4.15561
# Velocity P-wave (km/s) = 7.82437 4.90521 6.53001
#
# Compressibility (1/GPa) = 0.02837313
#
# Stress axis : x y z
#
# Youngs Moduli (GPa) = 44.11826 44.11826 98.79445
#
# Poissons Ratio (x) = 0.53986 0.06442
# Poissons Ratio (y) = 0.53986 0.06442
# Poissons Ratio (z) = 0.02877 0.02877
#
# Static dielectric constant tensor:
#      x y z
#    x 1.654580 0.000000 0.000000 
#    y 0.000000 1.654580 0.000000 
#    z 0.000000 0.000000 1.606390 
# 
# From -- ./inp_files/363.got.cif
#   From: 2010.05.17/outbox.cif.g08.bks.cpg/sg164_1_cif.got.tgz:363.got - 2010.05.20 10:58:56.
