data_PCOD9578125
_publ_section_title
;
Structure prediction by ZEFSAII (Michael W. Deem and Ramdas Pophale) SiO2 
 PCOD9578125
Probable space group: P -3 1 C
;
_chemical_formula_sum "Si O2"
_cell_formula_units_Z 76
_cell_length_a 17.781987
_cell_length_b 17.781987
_cell_length_c 15.191382
_cell_angle_alpha 90.000000
_cell_angle_beta 90.000000
_cell_angle_gamma 120.000000
_cell_volume 4159.953663
_symmetry_space_group_name_H-M "P -3 1 C"
_symmetry_group_IT_number 163
_symmetry_cell_setting 'hexagonal'
loop_
_space_group_symop_operation_xyz
x,y,z
-y,x-y,z
-x+y,-x,z
-y,-x,1/2-z
-x+y,y,1/2-z
x,x-y,1/2-z
-x,-y,-z
y,-x+y,-z
x-y,x,-z
y,x,1/2+z
x-y,-y,1/2+z
-x,-x+y,1/2+z
loop_
_atom_site_type_symbol
_atom_site_label
_atom_site_fract_x
_atom_site_fract_y
_atom_site_fract_z
Si Si1 0.134307 0.731701 0.372212
Si Si2 0.333334 0.666668 0.642586
Si Si3 0.914255 0.616318 0.678771
Si Si4 0.443496 0.888760 0.106794
Si Si5 0.618191 0.705530 0.929860
Si Si6 0.088358 0.561681 0.915488
Si Si7 0.739307 0.525030 0.150013
O O1 0.215919 0.828155 0.360741
O O2 0.079217 0.715536 0.282818
O O3 0.164685 0.658450 0.373265
O O4 0.085735 0.718502 0.465378
O O5 0.333334 0.666667 0.750000
O O6 0.432153 0.722487 0.613813
O O7 0.896529 0.517319 0.671754
O O8 0.999916 0.681926 0.623295
O O9 0.461204 0.986427 0.092202
O O10 0.470228 0.870593 0.011091
O O11 0.524628 0.620037 0.907270
O O12 0.603550 0.784401 0.899541
O O13 0.133861 0.642071 0.850812
O O14 0.766912 0.533823 0.250000
#
# Coordination Sequence:
#
# PCOD9578125 Si02
#       7
#    12   4  12  12  12  12  12
#     4  10  21  37  56  75 104 143 187 239 282 322
#     4   9  18  30  42  66 105 139 176 220 276 318
#     4  10  21  38  55  79 106 143 194 233 286 330
#     4   9  18  34  54  73  99 143 187 237 275 322
#     4  10  21  35  54  79 105 147 185 231 280 330
#     4   9  18  31  50  76 106 137 185 227 276 330
#     4  11  20  31  49  76 109 145 180 232 282 334
#
# _framework density 18.269432999999999
#
# number of rings (size 3 to 8) (size 9 to 14) (size 15 to 20)
#    0.000    2.211    1.579    2.368    2.211    0.000 
#    0.947    0.000    0.000    0.000    0.000    0.000 
#    0.000    0.000    0.000    8.526   25.579    0.000 
#
# Total GULP energy -423200.515288 kJ/mol
# GULP energy per Si atom -5568.427833 kJ/mol
# Density = 1.822785 g / cm^3
# Si number density = 18.269433 Si / 1000 Ang^3
#
#
#
# Elastic Constant Matrix: (Units=GPa)
#
#
# Indices 1 2 3 4 5 6 
#
# 1 58.4916 18.2679 36.8278 0.0000 2.3291 0.0000
# 2 18.2679 58.4915 36.8277 0.0001 -2.3292 -0.0001
# 3 36.8278 36.8277 116.7650 -0.0001 0.0000 -0.0001
# 4 0.0000 0.0001 -0.0001 23.3887 0.0000 -2.3292
# 5 2.3291 -2.3292 0.0000 0.0000 23.3886 0.0000
# 6 0.0000 -0.0001 -0.0001 -2.3292 0.0000 20.1118
#
#
#
# Elastic Compliance Matrix: (Units=1/GPa)
#
#
# Indices 1 2 3 4 5 6 
#
# 1 0.021916 -0.003235 -0.005892 0.000000 -0.002505 0.000000
# 2 -0.003235 0.021916 -0.005892 0.000000 0.002505 0.000000
# 3 -0.005892 -0.005892 0.012281 0.000000 0.000000 0.000000
# 4 0.000000 0.000000 0.000000 0.043255 0.000000 0.005009
# 5 -0.002505 0.002505 0.000000 0.000000 0.043255 0.000000
# 6 0.000000 0.000000 0.000000 0.005009 0.000000 0.050302
#
#
# Mechanical properties :
#
#
# Convention : Reuss Voigt Hill
#
# Bulk Modulus (GPa) = 38.35015 46.39942 42.37479
# Shear Modulus (GPa) = 21.58378 22.83278 22.20828
#
# Velocity S-wave (km/s) = 3.44090 3.53906 3.49032
# Velocity P-wave (km/s) = 6.06823 6.49248 6.28394
#
# Compressibility (1/GPa) = 0.02607552
#
# Stress axis : x y z
#
# Youngs Moduli (GPa) = 45.62799 45.62797 81.42640
#
# Poissons Ratio (x) = 0.14759 0.47978
# Poissons Ratio (y) = 0.14759 0.47978
# Poissons Ratio (z) = 0.26885 0.26885
#
# Static dielectric constant tensor:
#      x y z
#    x 1.691350 0.000000 0.000000 
#    y 0.000000 1.691350 0.000000 
#    z 0.000000 0.000000 1.715370 
# 
# From -- ./inp_files/2603.got.cif
#   From: 2010.05.17/outbox.cif.g08.bks.cpg/sg163_2_cif.got.tgz:2603.got - 2010.05.20 10:56:03.
