data_PCOD9578009
_publ_section_title
;
Structure prediction by ZEFSAII (Michael W. Deem and Ramdas Pophale) SiO2 
 PCOD9578009
Probable space group: P -3 1 C
;
_chemical_formula_sum "Si O2"
_cell_formula_units_Z 52
_cell_length_a 10.899578
_cell_length_b 10.899578
_cell_length_c 21.004954
_cell_angle_alpha 90.000000
_cell_angle_beta 90.000000
_cell_angle_gamma 120.000000
_cell_volume 2161.084427
_symmetry_space_group_name_H-M "P -3 1 C"
_symmetry_group_IT_number 163
_symmetry_cell_setting 'hexagonal'
loop_
_space_group_symop_operation_xyz
x,y,z
-y,x-y,z
-x+y,-x,z
-y,-x,1/2-z
-x+y,y,1/2-z
x,x-y,1/2-z
-x,-y,-z
y,-x+y,-z
x-y,x,-z
y,x,1/2+z
x-y,-y,1/2+z
-x,-x+y,1/2+z
loop_
_atom_site_type_symbol
_atom_site_label
_atom_site_fract_x
_atom_site_fract_y
_atom_site_fract_z
Si Si1 0.864801 0.193375 0.648001
Si Si2 0.056062 0.315226 0.010214
Si Si3 0.873157 0.296603 0.189495
Si Si4 0.000000 0.000000 0.327834
Si Si5 0.057700 0.419607 0.878917
O O1 0.911470 0.283056 0.582302
O O2 0.921241 0.081895 0.647849
O O3 0.963545 0.303618 0.702079
O O4 0.695785 0.097630 0.646444
O O5 0.176884 0.274595 0.996065
O O6 0.061140 0.420696 0.955264
O O7 0.772001 0.228000 0.250000
O O8 0.880816 0.431041 0.155894
O O9 0.800082 0.166269 0.140953
O O10 0.000000 0.000000 0.250000
#
# Coordination Sequence:
#
# PCOD9578009 Si02
#       5
#    12  12  12   4  12
#     4  11  22  41  70 106 140 191 253 316 374 431
#     4  10  18  37  66 103 145 188 246 315 372 437
#     4  12  25  46  69 102 148 198 251 307 375 455
#     4  12  21  39  70 110 142 183 262 323 367 444
#     4  11  25  42  70 105 143 198 250 307 376 448
#
# _framework density 24.061993999999999
#
# number of rings (size 3 to 8) (size 9 to 14) (size 15 to 20)
#    0.000    0.923    4.615    3.462    0.000    0.923 
#    1.385    0.000    0.000    0.000    0.000    0.000 
#    0.000    0.000    0.000    0.000    0.000    0.000 
#
# Total GULP energy -290555.456426 kJ/mol
# GULP energy per Si atom -5587.604931 kJ/mol
# Density = 2.400723 g / cm^3
# Si number density = 24.061994 Si / 1000 Ang^3
#
#
#
# Elastic Constant Matrix: (Units=GPa)
#
#
# Indices 1 2 3 4 5 6 
#
# 1 99.8429 26.2270 48.8139 0.0000 -8.9127 0.0000
# 2 26.2270 99.8429 48.8139 0.0000 8.9127 0.0000
# 3 48.8139 48.8139 161.4988 0.0000 0.0000 0.0000
# 4 0.0000 0.0000 0.0000 35.3028 0.0000 8.9127
# 5 -8.9127 8.9127 0.0000 0.0000 35.3028 0.0000
# 6 0.0000 0.0000 0.0000 8.9127 0.0000 36.8079
#
#
#
# Elastic Compliance Matrix: (Units=1/GPa)
#
#
# Indices 1 2 3 4 5 6 
#
# 1 0.012412 -0.002056 -0.003130 0.000000 0.003653 0.000000
# 2 -0.002056 0.012412 -0.003130 0.000000 -0.003653 0.000000
# 3 -0.003130 -0.003130 0.008084 0.000000 0.000000 0.000000
# 4 0.000000 0.000000 0.000000 0.030171 0.000000 -0.007306
# 5 0.003653 -0.003653 0.000000 0.000000 0.030171 0.000000
# 6 0.000000 0.000000 0.000000 -0.007306 0.000000 0.028937
#
#
# Mechanical properties :
#
#
# Convention : Reuss Voigt Hill
#
# Bulk Modulus (GPa) = 61.44133 67.65491 64.54812
# Shear Modulus (GPa) = 34.66304 37.30468 35.98386
#
# Velocity S-wave (km/s) = 3.79960 3.94173 3.87132
# Velocity P-wave (km/s) = 6.69622 6.99244 6.84593
#
# Compressibility (1/GPa) = 0.01627569
#
# Stress axis : x y z
#
# Youngs Moduli (GPa) = 80.56513 80.56513 123.69753
#
# Poissons Ratio (x) = 0.16566 0.38720
# Poissons Ratio (y) = 0.16566 0.38720
# Poissons Ratio (z) = 0.25218 0.25218
#
# Static dielectric constant tensor:
#      x y z
#    x 1.913280 0.000000 0.000000 
#    y 0.000000 1.913280 0.000000 
#    z 0.000000 0.000000 2.048230 
# 
# From -- ./inp_files/3512.got.cif
#   From: 2010.05.17/outbox.cif.g08.bks.cpg/sg163_2_cif.got.tgz:3512.got - 2010.05.20 10:56:03.
