data_PCOD9578239
_publ_section_title
;
Structure prediction by ZEFSAII (Michael W. Deem and Ramdas Pophale) SiO2 
 PCOD9578239
Probable space group: P -3 1 C
;
_chemical_formula_sum "Si O2"
_cell_formula_units_Z 72
_cell_length_a 23.562000
_cell_length_b 23.562000
_cell_length_c 8.812186
_cell_angle_alpha 90.000000
_cell_angle_beta 90.000000
_cell_angle_gamma 120.000000
_cell_volume 4236.806115
_symmetry_space_group_name_H-M "P -3 1 C"
_symmetry_group_IT_number 163
_symmetry_cell_setting 'hexagonal'
loop_
_space_group_symop_operation_xyz
x,y,z
-y,x-y,z
-x+y,-x,z
-y,-x,1/2-z
-x+y,y,1/2-z
x,x-y,1/2-z
-x,-y,-z
y,-x+y,-z
x-y,x,-z
y,x,1/2+z
x-y,-y,1/2+z
-x,-x+y,1/2+z
loop_
_atom_site_type_symbol
_atom_site_label
_atom_site_fract_x
_atom_site_fract_y
_atom_site_fract_z
Si Si1 0.036308 0.576447 0.969150
Si Si2 0.549292 0.215578 0.179422
Si Si3 0.640320 0.174429 0.639482
Si Si4 0.594898 0.856438 0.321500
Si Si5 0.142613 0.403059 0.815263
Si Si6 0.362215 0.000808 0.279214
O O1 0.108065 0.602900 0.038402
O O2 0.012154 0.621942 0.051741
O O3 0.020787 0.588417 0.799454
O O4 0.000000 0.500000 0.000000
O O5 0.594668 0.189336 0.250000
O O6 0.571399 0.285700 0.250000
O O7 0.473990 0.169722 0.233969
O O8 0.555251 0.225080 0.998198
O O9 0.590969 0.181938 0.750000
O O10 0.693679 0.169264 0.741423
O O11 0.621488 0.810744 0.250000
O O12 0.588164 0.848831 0.503192
O O13 0.633390 0.933981 0.280642
O O14 0.188335 0.376669 0.750000
O O15 0.066454 0.358339 0.775464
#
# Coordination Sequence:
#
# PCOD9578239 Si02
#       6
#    12  12  12  12  12  12
#     4  11  21  34  51  83 110 139 174 226 282 334
#     4  11  23  38  57  75 101 137 184 228 284 343
#     4  11  23  37  55  81 107 137 179 229 286 341
#     4  11  23  39  58  80 113 144 181 223 274 332
#     4  11  23  38  59  81 105 144 182 227 278 335
#     4  11  22  36  56  81 113 142 179 225 276 335
#
# _framework density 16.993933999999999
#
# number of rings (size 3 to 8) (size 9 to 14) (size 15 to 20)
#    0.000    1.000    3.333    5.667    4.667    0.000 
#    0.000    0.000    0.000    0.333    0.000    0.000 
#    0.000    0.000    0.000    0.500    0.000    4.333 
#
# Total GULP energy -401691.187858 kJ/mol
# GULP energy per Si atom -5579.044276 kJ/mol
# Density = 1.695526 g / cm^3
# Si number density = 16.993934 Si / 1000 Ang^3
#
#
#
# Elastic Constant Matrix: (Units=GPa)
#
#
# Indices 1 2 3 4 5 6 
#
# 1 77.2112 38.9043 34.8862 -0.0001 0.5742 0.0000
# 2 38.9043 77.2112 34.8862 0.0001 -0.5742 0.0000
# 3 34.8862 34.8862 112.1407 0.0000 0.0000 0.0000
# 4 -0.0001 0.0001 0.0000 21.3007 0.0000 -0.5742
# 5 0.5742 -0.5742 0.0000 0.0000 21.3007 -0.0001
# 6 0.0000 0.0000 0.0000 -0.5742 -0.0001 19.1534
#
#
#
# Elastic Compliance Matrix: (Units=1/GPa)
#
#
# Indices 1 2 3 4 5 6 
#
# 1 0.018359 -0.007767 -0.003295 0.000000 -0.000704 0.000000
# 2 -0.007767 0.018359 -0.003295 0.000000 0.000704 0.000000
# 3 -0.003295 -0.003295 0.010968 0.000000 0.000000 0.000000
# 4 0.000000 0.000000 0.000000 0.046985 0.000000 0.001408
# 5 -0.000704 0.000704 0.000000 0.000000 0.046985 0.000000
# 6 0.000000 0.000000 0.000000 0.001408 0.000000 0.052252
#
#
# Mechanical properties :
#
#
# Convention : Reuss Voigt Hill
#
# Bulk Modulus (GPa) = 52.71130 53.76847 53.23989
# Shear Modulus (GPa) = 21.83923 22.87672 22.35797
#
# Velocity S-wave (km/s) = 3.58874 3.67300 3.63112
# Velocity P-wave (km/s) = 6.94674 7.04957 6.99834
#
# Compressibility (1/GPa) = 0.01897126
#
# Stress axis : x y z
#
# Youngs Moduli (GPa) = 54.46885 54.46885 91.17801
#
# Poissons Ratio (x) = 0.42306 0.30044
# Poissons Ratio (y) = 0.42306 0.30044
# Poissons Ratio (z) = 0.17948 0.17948
#
# Static dielectric constant tensor:
#      x y z
#    x 1.605340 0.000000 0.000000 
#    y 0.000000 1.605340 0.000000 
#    z 0.000000 0.000000 1.607970 
# 
# From -- ./inp_files/1237.got.cif
#   From: 2010.05.17/outbox.cif.g08.bks.cpg/sg163_1_cif.got.tgz:1237.got - 2010.05.20 10:56:03.
