data_PCOD9578046
_publ_section_title
;
Structure prediction by ZEFSAII (Michael W. Deem and Ramdas Pophale) SiO2 
 PCOD9578046
Probable space group: P -3 1 C
;
_chemical_formula_sum "Si O2"
_cell_formula_units_Z 84
_cell_length_a 13.276135
_cell_length_b 13.276135
_cell_length_c 27.006770
_cell_angle_alpha 90.000000
_cell_angle_beta 90.000000
_cell_angle_gamma 120.000000
_cell_volume 4122.366473
_symmetry_space_group_name_H-M "P -3 1 C"
_symmetry_group_IT_number 163
_symmetry_cell_setting 'hexagonal'
loop_
_space_group_symop_operation_xyz
x,y,z
-y,x-y,z
-x+y,-x,z
-y,-x,1/2-z
-x+y,y,1/2-z
x,x-y,1/2-z
-x,-y,-z
y,-x+y,-z
x-y,x,-z
y,x,1/2+z
x-y,-y,1/2+z
-x,-x+y,1/2+z
loop_
_atom_site_type_symbol
_atom_site_label
_atom_site_fract_x
_atom_site_fract_y
_atom_site_fract_z
Si Si1 0.094316 0.549644 0.423979
Si Si2 0.260340 0.922862 0.133917
Si Si3 0.825607 0.641640 0.096022
Si Si4 0.039240 0.694983 0.150531
Si Si5 0.782932 0.794904 0.485367
Si Si6 0.128588 0.482334 0.523397
Si Si7 0.437636 0.106462 0.743292
O O1 0.124184 0.672527 0.400936
O O2 0.090307 0.465422 0.380283
O O3 0.166759 0.555095 0.472850
O O4 0.963467 0.495706 0.446670
O O5 0.123741 0.828917 0.133823
O O6 0.305506 0.927769 0.189947
O O7 0.302930 0.053115 0.116033
O O8 0.741093 0.527912 0.063248
O O9 0.903326 0.631286 0.138066
O O10 0.926436 0.732818 0.059874
O O11 0.052451 0.696286 0.209294
O O12 0.879843 0.802320 0.523699
O O13 0.652024 0.710546 0.503498
O O14 0.538153 0.076305 0.750000
O O15 0.488587 0.244294 0.750000
#
# Coordination Sequence:
#
# PCOD9578046 Si02
#       7
#    12  12  12  12  12  12  12
#     4  10  19  37  60  82 121 161 207 255 315 371
#     4  10  23  40  62  95 126 160 214 265 324 393
#     4  10  22  36  58  87 126 169 205 252 302 389
#     4  11  22  39  64  93 125 165 209 261 329 373
#     4  10  20  32  51  81 117 161 207 252 298 351
#     4   9  20  35  55  81 118 165 205 249 304 367
#     4  10  20  38  65  96 124 158 206 273 333 382
#
# _framework density 20.376645
#
# number of rings (size 3 to 8) (size 9 to 14) (size 15 to 20)
#    0.000    2.000    2.857    0.286    6.000    0.571 
#    1.714    0.000    0.000    4.571    0.000    0.000 
#    0.000    0.000    0.000    0.000    0.000    0.000 
#
# Total GULP energy -468566.659482 kJ/mol
# GULP energy per Si atom -5578.174518 kJ/mol
# Density = 2.033027 g / cm^3
# Si number density = 20.376645 Si / 1000 Ang^3
#
#
#
# Elastic Constant Matrix: (Units=GPa)
#
#
# Indices 1 2 3 4 5 6 
#
# 1 50.8513 3.1449 18.0546 0.0000 1.9040 0.0000
# 2 3.1449 50.8513 18.0546 0.0000 -1.9040 0.0000
# 3 18.0546 18.0546 120.8766 0.0000 0.0000 0.0000
# 4 0.0000 0.0000 0.0000 23.1899 0.0000 -1.9040
# 5 1.9040 -1.9040 0.0000 0.0000 23.1899 0.0000
# 6 0.0000 0.0000 0.0000 -1.9040 0.0000 23.8532
#
#
#
# Elastic Compliance Matrix: (Units=1/GPa)
#
#
# Indices 1 2 3 4 5 6 
#
# 1 0.020837 -0.000262 -0.003073 0.000000 -0.001732 0.000000
# 2 -0.000262 0.020837 -0.003073 0.000000 0.001732 0.000000
# 3 -0.003073 -0.003073 0.009191 0.000000 0.000000 0.000000
# 4 0.000000 0.000000 0.000000 0.043407 0.000000 0.003465
# 5 -0.001732 0.001732 0.000000 0.000000 0.043407 0.000000
# 6 0.000000 0.000000 0.000000 0.003465 0.000000 0.042200
#
#
# Mechanical properties :
#
#
# Convention : Reuss Voigt Hill
#
# Bulk Modulus (GPa) = 26.28243 33.45414 29.86829
# Shear Modulus (GPa) = 24.34523 26.26827 25.30675
#
# Velocity S-wave (km/s) = 3.46028 3.59435 3.52795
# Velocity P-wave (km/s) = 5.37504 5.80339 5.59332
#
# Compressibility (1/GPa) = 0.03804823
#
# Stress axis : x y z
#
# Youngs Moduli (GPa) = 47.99064 47.99064 108.80287
#
# Poissons Ratio (x) = 0.01260 0.33437
# Poissons Ratio (y) = 0.01260 0.33437
# Poissons Ratio (z) = 0.14748 0.14748
#
# Static dielectric constant tensor:
#      x y z
#    x 1.761210 0.000000 0.000000 
#    y 0.000000 1.761210 0.000000 
#    z 0.000000 0.000000 1.799980 
# 
# From -- ./inp_files/4170.got.cif
#   From: 2010.05.17/outbox.cif.g08.bks.cpg/sg163_3_cif.got.tgz:4170.got - 2010.05.20 10:56:03.
