data_PCOD9578005
_publ_section_title
;
Structure prediction by ZEFSAII (Michael W. Deem and Ramdas Pophale) SiO2 
 PCOD9578005
Probable space group: P -3 1 C
;
_chemical_formula_sum "Si O2"
_cell_formula_units_Z 72
_cell_length_a 23.082035
_cell_length_b 23.082035
_cell_length_c 9.424150
_cell_angle_alpha 90.000000
_cell_angle_beta 90.000000
_cell_angle_gamma 120.000000
_cell_volume 4348.315145
_symmetry_space_group_name_H-M "P -3 1 C"
_symmetry_group_IT_number 163
_symmetry_cell_setting 'hexagonal'
loop_
_space_group_symop_operation_xyz
x,y,z
-y,x-y,z
-x+y,-x,z
-y,-x,1/2-z
-x+y,y,1/2-z
x,x-y,1/2-z
-x,-y,-z
y,-x+y,-z
x-y,x,-z
y,x,1/2+z
x-y,-y,1/2+z
-x,-x+y,1/2+z
loop_
_atom_site_type_symbol
_atom_site_label
_atom_site_fract_x
_atom_site_fract_y
_atom_site_fract_z
Si Si1 0.760283 0.520565 0.750000
Si Si2 0.200446 0.399112 0.526995
Si Si3 0.383611 0.858486 0.134469
Si Si4 0.388215 0.539530 0.875690
Si Si5 0.511135 0.255568 0.250000
Si Si6 0.927877 0.312154 0.144285
Si Si7 0.682576 0.063678 0.017515
O O1 0.802814 0.567729 0.619676
O O2 0.796663 0.479917 0.798574
O O3 0.252145 0.461500 0.625797
O O4 0.130563 0.366788 0.609685
O O5 0.239440 0.359467 0.498239
O O6 0.443609 0.887218 0.250000
O O7 0.412955 0.835645 0.006563
O O8 0.360395 0.908006 0.065343
O O9 0.441236 0.558765 0.750000
O O10 0.328673 0.549037 0.813079
O O11 0.355635 0.461285 0.908090
O O12 0.942469 0.326878 0.311916
O O13 0.993756 0.332114 0.055634
#
# Coordination Sequence:
#
# PCOD9578005 Si02
#       7
#     6  12  12  12   6  12  12
#     4  10  22  38  58  74  96 142 180 220 292 338
#     4  10  19  40  61  75 109 140 172 217 262 329
#     4  11  23  38  56  75 109 138 175 241 296 334
#     4  11  20  37  56  76 102 135 178 237 285 332
#     4  10  18  36  60  70  88 144 184 216 272 346
#     4  11  23  37  60  86 105 143 182 219 274 342
#     4  11  23  38  59  85 107 141 184 218 276 341
#
# _framework density 16.558138
#
# number of rings (size 3 to 8) (size 9 to 14) (size 15 to 20)
#    0.000    1.333    5.000    3.000    7.000    1.333 
#    1.000    0.000   14.667    0.000    0.000    0.000 
#    0.000    0.000    0.000    0.500    0.000    2.833 
#
# Total GULP energy -401543.307169 kJ/mol
# GULP energy per Si atom -5576.990377 kJ/mol
# Density = 1.652045 g / cm^3
# Si number density = 16.558138 Si / 1000 Ang^3
#
#
#
# Elastic Constant Matrix: (Units=GPa)
#
#
# Indices 1 2 3 4 5 6 
#
# 1 68.6406 56.1152 32.9840 0.0000 -2.7351 0.0000
# 2 56.1152 68.6406 32.9840 0.0000 2.7351 0.0000
# 3 32.9840 32.9840 114.7651 0.0000 0.0000 0.0000
# 4 0.0000 0.0000 0.0000 27.1471 0.0000 2.7351
# 5 -2.7351 2.7351 0.0000 0.0000 27.1471 0.0000
# 6 0.0000 0.0000 0.0000 2.7351 0.0000 6.2627
#
#
#
# Elastic Compliance Matrix: (Units=1/GPa)
#
#
# Indices 1 2 3 4 5 6 
#
# 1 0.046482 -0.037030 -0.002717 0.000000 0.008414 0.000000
# 2 -0.037030 0.046482 -0.002717 0.000000 -0.008414 0.000000
# 3 -0.002717 -0.002717 0.010275 0.000000 0.000000 0.000000
# 4 0.000000 0.000000 0.000000 0.038532 0.000000 -0.016828
# 5 0.008414 -0.008414 0.000000 0.000000 0.038532 0.000000
# 6 0.000000 0.000000 0.000000 -0.016828 0.000000 0.167024
#
#
# Mechanical properties :
#
#
# Convention : Reuss Voigt Hill
#
# Bulk Modulus (GPa) = 54.60634 55.13472 54.87053
# Shear Modulus (GPa) = 11.40620 20.77559 16.09090
#
# Velocity S-wave (km/s) = 2.62746 3.54603 3.12072
# Velocity P-wave (km/s) = 6.50037 7.08065 6.79671
#
# Compressibility (1/GPa) = 0.01831289
#
# Stress axis : x y z
#
# Youngs Moduli (GPa) = 21.51362 21.51362 97.32394
#
# Poissons Ratio (x) = 0.79665 0.26439
# Poissons Ratio (y) = 0.79665 0.26439
# Poissons Ratio (z) = 0.05844 0.05844
#
# Static dielectric constant tensor:
#      x y z
#    x 1.581890 0.000000 0.000000 
#    y 0.000000 1.581890 0.000000 
#    z 0.000000 0.000000 1.634510 
# 
# From -- ./inp_files/1263.got.cif
#   From: 2010.05.17/outbox.cif.g08.bks.cpg/sg163_1_cif.got.tgz:1263.got - 2010.05.20 10:56:03.
