data_PCOD9578570
_publ_section_title
;
Structure prediction by ZEFSAII (Michael W. Deem and Ramdas Pophale) SiO2 
 PCOD9578570
Probable space group: P -3 M 1
;
_chemical_formula_sum "Si O2"
_cell_formula_units_Z 66
_cell_length_a 12.675274
_cell_length_b 12.675274
_cell_length_c 29.472791
_cell_angle_alpha 90.000000
_cell_angle_beta 90.000000
_cell_angle_gamma 120.000000
_cell_volume 4100.781301
_symmetry_space_group_name_H-M "P -3 M 1"
_symmetry_group_IT_number 164
_symmetry_cell_setting 'hexagonal'
loop_
_space_group_symop_operation_xyz
x,y,z
-y,x-y,z
-x+y,-x,z
x-y,-y,-z
-x,-x+y,-z
y,x,-z
-x,-y,-z
y,-x+y,-z
x-y,x,-z
-x+y,y,z
x,x-y,z
-y,-x,z
loop_
_atom_site_type_symbol
_atom_site_label
_atom_site_fract_x
_atom_site_fract_y
_atom_site_fract_z
Si Si1 0.416195 0.082712 0.235050
Si Si2 0.000155 0.747582 0.951291
Si Si3 0.083177 0.667155 0.411586
Si Si4 0.000000 0.748760 0.500000
Si Si5 0.000081 0.747123 0.148323
Si Si6 0.999902 0.250936 0.323439
O O1 0.539345 0.078690 0.238686
O O2 0.443245 0.221623 0.233829
O O3 0.329700 0.020154 0.278274
O O4 0.343209 0.019066 0.189168
O O5 0.879901 0.759801 0.950634
O O6 0.002109 0.694979 0.901857
O O7 0.119001 0.881000 0.952144
O O8 0.000000 0.688268 0.000000
O O9 0.075259 0.537630 0.412180
O O10 0.223363 0.776638 0.411584
O O11 0.021195 0.687501 0.455822
O O12 0.021873 0.685402 0.366719
O O13 0.880771 0.761542 0.494236
O O14 0.125606 0.874395 0.153314
O O15 0.885298 0.770595 0.150243
O O16 0.879875 0.120126 0.330125
O O17 0.118112 0.236223 0.318603
#
# Coordination Sequence:
#
# PCOD9578570 Si02
#       6
#    12  12  12   6  12  12
#     4  10  20  33  48  65  88 120 157 195 232 272
#     4   8  12  18  31  55  87 118 144 172 214 271
#     4  10  20  34  52  74 102 136 171 204 237 277
#     4  10  20  34  54  78 104 134 168 210 256 298
#     4   9  16  26  43  67  93 119 146 182 229 279
#     4  10  20  34  54  78 102 126 152 189 237 287
#
# _framework density 16.094494999999998
#
# number of rings (size 3 to 8) (size 9 to 14) (size 15 to 20)
#    0.000    2.545    0.000    2.909    0.000    2.182 
#    0.000    3.636    0.000    9.636    0.000    0.000 
#    0.000    0.000    0.000    0.000    0.000    0.000 
#
# Total GULP energy -367663.842598 kJ/mol
# GULP energy per Si atom -5570.664282 kJ/mol
# Density = 1.605786 g / cm^3
# Si number density = 16.094495 Si / 1000 Ang^3
#
#
#
# Elastic Constant Matrix: (Units=GPa)
#
#
# Indices 1 2 3 4 5 6 
#
# 1 90.3812 63.2095 77.9492 -0.0455 0.0000 0.0000
# 2 63.2095 90.3812 77.9492 0.0455 0.0000 0.0000
# 3 77.9492 77.9492 180.5883 0.0000 0.0000 0.0000
# 4 -0.0455 0.0455 0.0000 9.3886 0.0000 0.0000
# 5 0.0000 0.0000 0.0000 0.0000 9.3886 -0.0455
# 6 0.0000 0.0000 0.0000 0.0000 -0.0455 13.5859
#
#
#
# Elastic Compliance Matrix: (Units=1/GPa)
#
#
# Indices 1 2 3 4 5 6 
#
# 1 0.024196 -0.012608 -0.005002 0.000178 0.000000 0.000000
# 2 -0.012608 0.024196 -0.005002 -0.000178 0.000000 0.000000
# 3 -0.005002 -0.005002 0.009855 0.000000 0.000000 0.000000
# 4 0.000178 -0.000178 0.000000 0.106514 0.000000 0.000000
# 5 0.000000 0.000000 0.000000 0.000000 0.106514 0.000357
# 6 0.000000 0.000000 0.000000 0.000000 0.000357 0.073607
#
#
# Mechanical properties :
#
#
# Convention : Reuss Voigt Hill
#
# Bulk Modulus (GPa) = 76.78223 88.84070 82.81146
# Shear Modulus (GPa) = 12.67601 15.95547 14.31574
#
# Velocity S-wave (km/s) = 2.80946 3.15201 2.98565
# Velocity P-wave (km/s) = 7.63772 8.28047 7.96558
#
# Compressibility (1/GPa) = 0.01302385
#
# Stress axis : x y z
#
# Youngs Moduli (GPa) = 41.32988 41.32988 101.46800
#
# Poissons Ratio (x) = 0.52108 0.50751
# Poissons Ratio (y) = 0.52108 0.50751
# Poissons Ratio (z) = 0.20672 0.20672
#
# Static dielectric constant tensor:
#      x y z
#    x 1.501850 0.000000 0.000000 
#    y 0.000000 1.501850 0.000000 
#    z 0.000000 0.000000 1.575570 
# 
# From -- ./inp_files/5477.got.cif
#   From: 2010.05.17/outbox.cif.g08.bks.cpg/sg164_3_cif.got.tgz:5477.got - 2010.05.20 10:58:56.
