data_PCOD9579424
_publ_section_title
;
Structure prediction by ZEFSAII (Michael W. Deem and Ramdas Pophale) SiO2 
 PCOD9579424
Probable space group: R -3 C 
;
_chemical_formula_sum "Si O2"
_cell_formula_units_Z 108
_cell_length_a 15.605208
_cell_length_b 15.605208
_cell_length_c 21.689032
_cell_angle_alpha 90.000000
_cell_angle_beta 90.000000
_cell_angle_gamma 120.000000
_cell_volume 4574.144969
_symmetry_space_group_name_H-M "R -3 C "
_symmetry_group_IT_number 167
_symmetry_cell_setting 'hexagonal'
loop_
_space_group_symop_operation_xyz
x,y,z
-y,x-y,z
-x+y,-x,z
x-y,-y,1/2-z
-x,-x+y,1/2-z
y,x,1/2-z
-x,-y,-z
y,-x+y,-z
x-y,x,-z
-x+y,y,1/2+z
x,x-y,1/2+z
-y,-x,1/2+z
2/3+x,1/3+y,1/3+z
2/3-y,1/3+x-y,1/3+z
2/3-x+y,1/3-x,1/3+z
2/3+x-y,1/3-y,5/6-z
2/3-x,1/3-x+y,5/6-z
2/3+y,1/3+x,5/6-z
2/3-x,1/3-y,1/3-z
2/3+y,1/3-x+y,1/3-z
2/3+x-y,1/3+x,1/3-z
2/3-x+y,1/3+y,5/6+z
2/3+x,1/3+x-y,5/6+z
2/3-y,1/3-x,5/6+z
1/3+x,2/3+y,2/3+z
1/3-y,2/3+x-y,2/3+z
1/3-x+y,2/3-x,2/3+z
1/3+x-y,2/3-y,1/6-z
1/3-x,2/3-x+y,1/6-z
1/3+y,2/3+x,1/6-z
1/3-x,2/3-y,2/3-z
1/3+y,2/3-x+y,2/3-z
1/3+x-y,2/3+x,2/3-z
1/3-x+y,2/3+y,1/6+z
1/3+x,2/3+x-y,1/6+z
1/3-y,2/3-x,1/6+z
loop_
_atom_site_type_symbol
_atom_site_label
_atom_site_fract_x
_atom_site_fract_y
_atom_site_fract_z
Si Si1 0.910525 0.333334 0.583334
Si Si2 0.552555 0.219222 0.083334
Si Si3 0.956290 0.792670 0.117768
Si Si4 0.773764 0.823637 0.110502
O O1 0.925557 0.244801 0.608757
O O2 0.854284 0.284256 0.517945
O O3 0.666667 0.244007 0.083334
O O4 0.485966 0.178651 0.142901
O O5 0.799288 0.523730 0.238089
O O6 0.064754 0.868152 0.090523
O O7 0.666667 0.746372 0.083334
#
# Coordination Sequence:
#
# PCOD9579424 Si02
#       4
#    18  18  36  36
#     4  12  30  45  73 118 156 206 266 327 402 471
#     4  10  18  39  79 114 144 206 280 317 382 473
#     4  12  24  48  76 114 157 201 266 329 395 471
#     4  12  27  49  80 115 159 208 264 327 398 481
#
# _framework density 23.610970999999999
#
# number of rings (size 3 to 8) (size 9 to 14) (size 15 to 20)
#    0.333    0.000    5.000    3.667    7.000    0.000 
#    0.000    0.000    0.000    4.000    0.000    0.000 
#    0.000    0.000    0.000    0.000    0.000    0.000 
#
# Total GULP energy -200903.536054 kJ/mol
# GULP energy per Si atom -5580.653779 kJ/mol
# Density = 2.355723 g / cm^3
# Si number density = 23.610971 Si / 1000 Ang^3
#
#
#
# Elastic Constant Matrix: (Units=GPa)
#
#
# Indices 1 2 3 4 5 6 
#
# 1 74.9628 32.4368 25.6449 22.7780 -0.0011 0.0000
# 2 32.4368 74.9628 25.6449 -22.7780 0.0011 0.0000
# 3 25.6449 25.6449 68.4366 0.0000 0.0000 0.0000
# 4 22.7780 -22.7780 0.0000 20.8299 0.0000 0.0011
# 5 -0.0011 0.0011 0.0000 0.0000 20.8299 22.7780
# 6 0.0000 0.0000 0.0000 0.0011 22.7780 21.2630
#
#
#
# Elastic Compliance Matrix: (Units=1/GPa)
#
#
# Indices 1 2 3 4 5 6 
#
# 1 -0.062913 0.074254 -0.004250 0.149995 -0.000008 0.000000
# 2 0.074254 -0.062913 -0.004250 -0.149995 0.000008 0.000000
# 3 -0.004250 -0.004250 0.017797 0.000000 0.000000 0.000000
# 4 0.149995 -0.149995 0.000000 -0.280039 0.000000 0.000015
# 5 -0.000008 0.000008 0.000000 0.000000 -0.280039 0.299991
# 6 0.000000 0.000000 0.000000 0.000015 0.299991 -0.274335
#
#
# Mechanical properties :
#
#
# Convention : Reuss Voigt Hill
#
# Bulk Modulus (GPa) = 42.59020 42.86837 42.72928
# Shear Modulus (GPa) = -4.68988 21.56027 8.43520
#
# Velocity S-wave (km/s) = -1.41090 3.02511 1.89218
# Velocity P-wave (km/s) = 3.92725 5.51337 4.78647
#
# Compressibility (1/GPa) = 0.02347958
#
# Stress axis : x y z
#
# Youngs Moduli (GPa) = -15.89484 -15.89484 56.18959
#
# Poissons Ratio (x) = 1.18025 0.23878
# Poissons Ratio (y) = 1.18025 0.23878
# Poissons Ratio (z) = -0.06755 -0.06755
#
# Static dielectric constant tensor:
#      x y z
#    x 1.853570 0.000000 0.000000 
#    y 0.000000 1.853570 0.000000 
#    z 0.000000 0.000000 1.896250 
# 
# From -- ./inp_files/5951.got.cif
#   From: 2010.05.17/outbox.cif.g08.bks.cpg/sg167_3_cif.got.tgz:5951.got - 2010.05.20 11:09:15.
