data_PCOD9579575
_publ_section_title
;
Structure prediction by ZEFSAII (Michael W. Deem and Ramdas Pophale) SiO2 
 PCOD9579575
Probable space group: R -3 C 
;
_chemical_formula_sum "Si O2"
_cell_formula_units_Z 234
_cell_length_a 25.705755
_cell_length_b 25.705755
_cell_length_c 21.556031
_cell_angle_alpha 90.000000
_cell_angle_beta 90.000000
_cell_angle_gamma 120.000000
_cell_volume 12335.596616
_symmetry_space_group_name_H-M "R -3 C "
_symmetry_group_IT_number 167
_symmetry_cell_setting 'hexagonal'
loop_
_space_group_symop_operation_xyz
x,y,z
-y,x-y,z
-x+y,-x,z
x-y,-y,1/2-z
-x,-x+y,1/2-z
y,x,1/2-z
-x,-y,-z
y,-x+y,-z
x-y,x,-z
-x+y,y,1/2+z
x,x-y,1/2+z
-y,-x,1/2+z
2/3+x,1/3+y,1/3+z
2/3-y,1/3+x-y,1/3+z
2/3-x+y,1/3-x,1/3+z
2/3+x-y,1/3-y,5/6-z
2/3-x,1/3-x+y,5/6-z
2/3+y,1/3+x,5/6-z
2/3-x,1/3-y,1/3-z
2/3+y,1/3-x+y,1/3-z
2/3+x-y,1/3+x,1/3-z
2/3-x+y,1/3+y,5/6+z
2/3+x,1/3+x-y,5/6+z
2/3-y,1/3-x,5/6+z
1/3+x,2/3+y,2/3+z
1/3-y,2/3+x-y,2/3+z
1/3-x+y,2/3-x,2/3+z
1/3+x-y,2/3-y,1/6-z
1/3-x,2/3-x+y,1/6-z
1/3+y,2/3+x,1/6-z
1/3-x,2/3-y,2/3-z
1/3+y,2/3-x+y,2/3-z
1/3+x-y,2/3+x,2/3-z
1/3-x+y,2/3+y,1/6+z
1/3+x,2/3+x-y,1/6+z
1/3-y,2/3-x,1/6+z
loop_
_atom_site_type_symbol
_atom_site_label
_atom_site_fract_x
_atom_site_fract_y
_atom_site_fract_z
Si Si1 0.000000 0.674753 0.750000
Si Si2 0.380526 0.985420 0.047831
Si Si3 0.814542 0.212252 0.447202
Si Si4 0.127644 0.895617 0.874279
Si Si5 0.658180 0.143431 0.898030
Si Si6 0.222775 0.209598 0.426533
Si Si7 0.814021 0.182186 0.588597
O O1 0.025032 0.717657 0.809949
O O2 0.056353 0.667209 0.730215
O O3 0.362765 0.924157 0.081550
O O4 0.347700 0.014367 0.083334
O O5 0.451016 0.027812 0.060984
O O6 0.863136 0.196469 0.416667
O O7 0.820692 0.275080 0.425859
O O8 0.748602 0.160718 0.427245
O O9 0.818079 0.208014 0.521082
O O10 0.165629 0.867037 0.906144
O O11 0.111583 0.860112 0.808667
O O12 0.065503 0.879161 0.908826
O O13 0.174699 0.966424 0.877461
O O14 0.661541 0.145481 0.824011
#
# Coordination Sequence:
#
# PCOD9579575 Si02
#       7
#    18  36  36  36  36  36  36
#     4  12  22  32  58  86 118 160 196 240 300 356
#     4  11  20  34  54  84 117 155 196 234 290 359
#     4  12  24  38  61  86 116 156 203 252 310 372
#     4  10  23  39  57  82 119 157 194 248 296 358
#     4  11  24  38  56  81 119 157 199 245 294 362
#     4  12  22  40  58  86 118 155 201 247 304 364
#     4  10  22  37  56  84 119 152 199 244 290 363
#
# _framework density 18.969491000000001
#
# number of rings (size 3 to 8) (size 9 to 14) (size 15 to 20)
#    0.000    0.923    3.846    5.077    2.154    0.615 
#    0.000    0.000    0.000    0.615    0.000    2.154 
#    0.000    2.462    0.000    0.000    0.000    0.000 
#
# Total GULP energy -435208.747912 kJ/mol
# GULP energy per Si atom -5579.599332 kJ/mol
# Density = 1.892632 g / cm^3
# Si number density = 18.969491 Si / 1000 Ang^3
#
#
#
# Elastic Constant Matrix: (Units=GPa)
#
#
# Indices 1 2 3 4 5 6 
#
# 1 47.3104 8.9463 1.3282 1.3348 0.0001 0.0000
# 2 8.9463 47.3104 1.3282 -1.3348 -0.0001 0.0000
# 3 1.3282 1.3282 99.1735 0.0000 0.0000 0.0000
# 4 1.3348 -1.3348 0.0000 19.4697 0.0000 -0.0001
# 5 0.0001 -0.0001 0.0000 0.0000 19.4697 1.3348
# 6 0.0000 0.0000 0.0000 -0.0001 1.3348 19.1821
#
#
#
# Elastic Compliance Matrix: (Units=1/GPa)
#
#
# Indices 1 2 3 4 5 6 
#
# 1 0.021989 -0.004202 -0.000238 -0.001796 0.000000 0.000000
# 2 -0.004202 0.021989 -0.000238 0.001796 0.000000 0.000000
# 3 -0.000238 -0.000238 0.010090 0.000000 0.000000 0.000000
# 4 -0.001796 0.001796 0.000000 0.051608 0.000000 0.000000
# 5 0.000000 0.000000 0.000000 0.000000 0.051608 -0.003591
# 6 0.000000 0.000000 0.000000 0.000000 -0.003591 0.052382
#
#
# Mechanical properties :
#
#
# Convention : Reuss Voigt Hill
#
# Bulk Modulus (GPa) = 22.36605 24.11110 23.23857
# Shear Modulus (GPa) = 21.37428 23.77040 22.57234
#
# Velocity S-wave (km/s) = 3.36038 3.54374 3.45328
# Velocity P-wave (km/s) = 5.18386 5.42975 5.30822
#
# Compressibility (1/GPa) = 0.04471063
#
# Stress axis : x y z
#
# Youngs Moduli (GPa) = 45.47743 45.47743 99.11074
#
# Poissons Ratio (x) = 0.19110 0.02361
# Poissons Ratio (y) = 0.19110 0.02361
# Poissons Ratio (z) = 0.01083 0.01083
#
# Static dielectric constant tensor:
#      x y z
#    x 1.702150 0.000000 0.000000 
#    y 0.000000 1.702150 0.000000 
#    z 0.000000 0.000000 1.722330 
# 
# From -- ./inp_files/4696.got.cif
#   From: 2010.05.17/outbox.cif.g08.bks.cpg/sg167_3_cif.got.tgz:4696.got - 2010.05.20 11:09:15.
