data_PCOD9579697
_publ_section_title
;
Structure prediction by ZEFSAII (Michael W. Deem and Ramdas Pophale) SiO2 
 PCOD9579697
Probable space group: R -3 C 
;
_chemical_formula_sum "Si O2"
_cell_formula_units_Z 84
_cell_length_a 16.539003
_cell_length_b 16.539003
_cell_length_c 14.321687
_cell_angle_alpha 90.000000
_cell_angle_beta 90.000000
_cell_angle_gamma 120.000000
_cell_volume 3392.684398
_symmetry_space_group_name_H-M "R -3 C "
_symmetry_group_IT_number 167
_symmetry_cell_setting 'hexagonal'
loop_
_space_group_symop_operation_xyz
x,y,z
-y,x-y,z
-x+y,-x,z
x-y,-y,1/2-z
-x,-x+y,1/2-z
y,x,1/2-z
-x,-y,-z
y,-x+y,-z
x-y,x,-z
-x+y,y,1/2+z
x,x-y,1/2+z
-y,-x,1/2+z
2/3+x,1/3+y,1/3+z
2/3-y,1/3+x-y,1/3+z
2/3-x+y,1/3-x,1/3+z
2/3+x-y,1/3-y,5/6-z
2/3-x,1/3-x+y,5/6-z
2/3+y,1/3+x,5/6-z
2/3-x,1/3-y,1/3-z
2/3+y,1/3-x+y,1/3-z
2/3+x-y,1/3+x,1/3-z
2/3-x+y,1/3+y,5/6+z
2/3+x,1/3+x-y,5/6+z
2/3-y,1/3-x,5/6+z
1/3+x,2/3+y,2/3+z
1/3-y,2/3+x-y,2/3+z
1/3-x+y,2/3-x,2/3+z
1/3+x-y,2/3-y,1/6-z
1/3-x,2/3-x+y,1/6-z
1/3+y,2/3+x,1/6-z
1/3-x,2/3-y,2/3-z
1/3+y,2/3-x+y,2/3-z
1/3+x-y,2/3+x,2/3-z
1/3-x+y,2/3+y,1/6+z
1/3+x,2/3+x-y,1/6+z
1/3-y,2/3-x,1/6+z
loop_
_atom_site_type_symbol
_atom_site_label
_atom_site_fract_x
_atom_site_fract_y
_atom_site_fract_z
Si Si1 0.172824 0.469100 0.021641
Si Si2 0.666668 0.333334 0.196310
Si Si3 0.747451 0.087067 0.518231
O O1 0.267569 0.559033 0.058387
O O2 0.089143 0.453035 0.090542
O O3 0.158475 0.491808 0.916667
O O4 0.184898 0.379843 0.004524
O O5 0.666668 0.333334 0.083334
O O6 0.708847 0.042180 0.416667
O O7 0.666667 0.082046 0.583334
#
# Coordination Sequence:
#
# PCOD9579697 Si02
#       3
#    36  12  36
#     4  11  24  46  76 112 154 206 265 332 403 485
#     4   9  21  42  73 113 155 203 265 333 403 482
#     4  12  27  48  74 109 152 205 267 333 404 485
#
# _framework density 24.759156000000001
#
# number of rings (size 3 to 8) (size 9 to 14) (size 15 to 20)
#    0.000    0.857    0.000    7.714    0.000   10.286 
#    0.000    2.143    0.000    0.000    0.000    0.000 
#    0.000    0.000    0.000    0.000    0.000    0.000 
#
# Total GULP energy -156683.893054 kJ/mol
# GULP energy per Si atom -5595.853323 kJ/mol
# Density = 2.470280 g / cm^3
# Si number density = 24.759156 Si / 1000 Ang^3
#
#
#
# Elastic Constant Matrix: (Units=GPa)
#
#
# Indices 1 2 3 4 5 6 
#
# 1 126.9169 61.6100 50.1174 -18.4011 0.0062 -0.0003
# 2 61.6100 126.9122 50.1164 18.4029 -0.0059 0.0002
# 3 50.1174 50.1164 177.0669 -0.0004 0.0005 -0.0001
# 4 -18.4011 18.4029 -0.0004 -69.0492 -0.0014 -0.0063
# 5 0.0062 -0.0059 0.0005 -0.0014 -69.0613 -18.4029
# 6 -0.0003 0.0002 -0.0001 -0.0063 -18.4029 32.6534
#
#
#
# Elastic Compliance Matrix: (Units=1/GPa)
#
#
# Indices 1 2 3 4 5 6 
#
# 1 0.009778 -0.003535 -0.001767 -0.003548 0.000001 0.000000
# 2 -0.003535 0.009779 -0.001767 0.003548 -0.000001 0.000000
# 3 -0.001767 -0.001767 0.006648 0.000000 0.000000 0.000000
# 4 -0.003548 0.003548 0.000000 -0.012591 0.000000 -0.000002
# 5 0.000001 -0.000001 0.000000 0.000000 -0.012589 -0.007095
# 6 0.000000 0.000000 0.000000 -0.000002 -0.007095 0.026626
#
#
# Mechanical properties :
#
#
# Convention : Reuss Voigt Hill
#
# Bulk Modulus (GPa) = 82.87208 83.84264 83.35736
# Shear Modulus (GPa) = 109.14289 -3.15462 52.99414
#
# Velocity S-wave (km/s) = 6.64662 -1.12999 4.63145
# Velocity P-wave (km/s) = 9.61495 5.67752 7.89562
#
# Compressibility (1/GPa) = 0.01206679
#
# Stress axis : x y z
#
# Youngs Moduli (GPa) = 102.26520 102.26257 150.42093
#
# Poissons Ratio (x) = 0.36146 0.26584
# Poissons Ratio (y) = 0.36147 0.26584
# Poissons Ratio (z) = 0.18073 0.18073
#
# Static dielectric constant tensor:
#      x y z
#    x 2.030110 0.000000 0.000000 
#    y 0.000000 2.030120 0.000000 
#    z 0.000000 0.000000 2.198630 
# 
# From -- ./inp_files/1858.got.cif
#   From: 2010.05.17/outbox.cif.g08.bks.cpg/sg167_1_cif.got.tgz:1858.got - 2010.05.20 11:09:15.
