data_PCOD9579636
_publ_section_title
;
Structure prediction by ZEFSAII (Michael W. Deem and Ramdas Pophale) SiO2 
 PCOD9579636
Probable space group: R -3 C 
;
_chemical_formula_sum "Si O2"
_cell_formula_units_Z 126
_cell_length_a 21.421655
_cell_length_b 21.421655
_cell_length_c 12.871988
_cell_angle_alpha 90.000000
_cell_angle_beta 90.000000
_cell_angle_gamma 120.000000
_cell_volume 5115.431803
_symmetry_space_group_name_H-M "R -3 C "
_symmetry_group_IT_number 167
_symmetry_cell_setting 'hexagonal'
loop_
_space_group_symop_operation_xyz
x,y,z
-y,x-y,z
-x+y,-x,z
x-y,-y,1/2-z
-x,-x+y,1/2-z
y,x,1/2-z
-x,-y,-z
y,-x+y,-z
x-y,x,-z
-x+y,y,1/2+z
x,x-y,1/2+z
-y,-x,1/2+z
2/3+x,1/3+y,1/3+z
2/3-y,1/3+x-y,1/3+z
2/3-x+y,1/3-x,1/3+z
2/3+x-y,1/3-y,5/6-z
2/3-x,1/3-x+y,5/6-z
2/3+y,1/3+x,5/6-z
2/3-x,1/3-y,1/3-z
2/3+y,1/3-x+y,1/3-z
2/3+x-y,1/3+x,1/3-z
2/3-x+y,1/3+y,5/6+z
2/3+x,1/3+x-y,5/6+z
2/3-y,1/3-x,5/6+z
1/3+x,2/3+y,2/3+z
1/3-y,2/3+x-y,2/3+z
1/3-x+y,2/3-x,2/3+z
1/3+x-y,2/3-y,1/6-z
1/3-x,2/3-x+y,1/6-z
1/3+y,2/3+x,1/6-z
1/3-x,2/3-y,2/3-z
1/3+y,2/3-x+y,2/3-z
1/3+x-y,2/3+x,2/3-z
1/3-x+y,2/3+y,1/6+z
1/3+x,2/3+x-y,1/6+z
1/3-y,2/3-x,1/6+z
loop_
_atom_site_type_symbol
_atom_site_label
_atom_site_fract_x
_atom_site_fract_y
_atom_site_fract_z
Si Si1 0.261404 0.036990 0.867999
Si Si2 0.780556 0.191877 0.116802
Si Si3 0.977033 0.850051 0.527771
Si Si4 0.666667 0.619139 0.583334
O O1 0.333334 0.104163 0.916667
O O2 0.164701 0.929750 0.720210
O O3 0.289008 0.980019 0.848567
O O4 0.203535 0.007648 0.959206
O O5 0.833334 0.166667 0.166667
O O6 0.731931 0.203827 0.202277
O O7 0.727112 0.125129 0.042732
O O8 0.922798 0.868884 0.464532
#
# Coordination Sequence:
#
# PCOD9579636 Si02
#       4
#    36  36  36  18
#     4  10  24  42  69 107 139 178 247 287 370 450
#     4  12  23  44  70  99 144 184 231 303 366 429
#     4  12  27  47  71 101 144 197 250 301 358 439
#     4  10  24  42  66 102 142 182 226 302 374 434
#
# _framework density 24.631352
#
# number of rings (size 3 to 8) (size 9 to 14) (size 15 to 20)
#    0.857    0.000    2.857    3.714    0.000    8.000 
#    5.143    0.000    0.000    3.429    0.000    0.000 
#    0.000    0.000    0.000    0.000    0.000    0.000 
#
# Total GULP energy -234375.274911 kJ/mol
# GULP energy per Si atom -5580.363688 kJ/mol
# Density = 2.457529 g / cm^3
# Si number density = 24.631352 Si / 1000 Ang^3
#
#
#
# Elastic Constant Matrix: (Units=GPa)
#
#
# Indices 1 2 3 4 5 6 
#
# 1 159.5022 54.2601 35.0669 -5.6371 0.0000 0.0000
# 2 54.2601 159.5022 35.0669 5.6371 0.0001 0.0000
# 3 35.0669 35.0669 72.1564 0.0000 0.0000 0.0000
# 4 -5.6371 5.6371 0.0000 26.8456 0.0000 0.0000
# 5 0.0000 0.0001 0.0000 0.0000 26.8456 -5.6371
# 6 0.0000 0.0000 0.0000 0.0000 -5.6371 52.6211
#
#
#
# Elastic Compliance Matrix: (Units=1/GPa)
#
#
# Indices 1 2 3 4 5 6 
#
# 1 0.007643 -0.002078 -0.002705 0.002041 0.000000 0.000000
# 2 -0.002078 0.007643 -0.002705 -0.002041 0.000000 0.000000
# 3 -0.002705 -0.002705 0.016488 0.000000 0.000000 0.000000
# 4 0.002041 -0.002041 0.000000 0.038107 0.000000 0.000000
# 5 0.000000 0.000000 0.000000 0.000000 0.038107 0.004082
# 6 0.000000 0.000000 0.000000 0.000000 0.004082 0.019441
#
#
# Mechanical properties :
#
#
# Convention : Reuss Voigt Hill
#
# Bulk Modulus (GPa) = 59.52477 71.10540 65.31508
# Shear Modulus (GPa) = 33.78302 39.04692 36.41497
#
# Velocity S-wave (km/s) = 3.70746 3.98584 3.84917
# Velocity P-wave (km/s) = 6.52271 7.07906 6.80657
#
# Compressibility (1/GPa) = 0.01679973
#
# Stress axis : x y z
#
# Youngs Moduli (GPa) = 130.83819 130.83820 60.65121
#
# Poissons Ratio (x) = 0.27182 0.16405
# Poissons Ratio (y) = 0.27182 0.16405
# Poissons Ratio (z) = 0.35388 0.35388
#
# Static dielectric constant tensor:
#      x y z
#    x 1.962460 0.000000 0.000000 
#    y 0.000000 1.962460 0.000000 
#    z 0.000000 0.000000 2.331400 
# 
# From -- ./inp_files/3049.got.cif
#   From: 2010.05.17/outbox.cif.g08.bks.cpg/sg167_2_cif.got.tgz:3049.got - 2010.05.20 11:09:15.
