data_PCOD9579165
_publ_section_title
;
Structure prediction by ZEFSAII (Michael W. Deem and Ramdas Pophale) SiO2 
 PCOD9579165
Probable space group: R -3 M
;
_chemical_formula_sum "Si O2"
_cell_formula_units_Z 216
_cell_length_a 22.978319
_cell_length_b 22.978319
_cell_length_c 27.160678
_cell_angle_alpha 90.000000
_cell_angle_beta 90.000000
_cell_angle_gamma 120.000000
_cell_volume 12419.603960
_symmetry_space_group_name_H-M "R -3 M"
_symmetry_group_IT_number 166
_symmetry_cell_setting 'hexagonal'
loop_
_space_group_symop_operation_xyz
x,y,z
-y,x-y,z
-x+y,-x,z
x-y,-y,-z
-x,-x+y,-z
y,x,-z
-x,-y,-z
y,-x+y,-z
x-y,x,-z
-x+y,y,z
x,x-y,z
-y,-x,z
2/3+x,1/3+y,1/3+z
2/3-y,1/3+x-y,1/3+z
2/3-x+y,1/3-x,1/3+z
2/3+x-y,1/3-y,1/3-z
2/3-x,1/3-x+y,1/3-z
2/3+y,1/3+x,1/3-z
2/3-x,1/3-y,1/3-z
2/3+y,1/3-x+y,1/3-z
2/3+x-y,1/3+x,1/3-z
2/3-x+y,1/3+y,1/3+z
2/3+x,1/3+x-y,1/3+z
2/3-y,1/3-x,1/3+z
1/3+x,2/3+y,2/3+z
1/3-y,2/3+x-y,2/3+z
1/3-x+y,2/3-x,2/3+z
1/3+x-y,2/3-y,2/3-z
1/3-x,2/3-x+y,2/3-z
1/3+y,2/3+x,2/3-z
1/3-x,2/3-y,2/3-z
1/3+y,2/3-x+y,2/3-z
1/3+x-y,2/3+x,2/3-z
1/3-x+y,2/3+y,2/3+z
1/3+x,2/3+x-y,2/3+z
1/3-y,2/3-x,2/3+z
loop_
_atom_site_type_symbol
_atom_site_label
_atom_site_fract_x
_atom_site_fract_y
_atom_site_fract_z
Si Si1 0.789298 0.075484 0.367871
Si Si2 0.073528 0.282012 0.750355
Si Si3 0.258018 0.876099 0.286616
Si Si4 0.735149 0.800004 0.208104
Si Si5 0.533266 0.333316 0.274245
Si Si6 0.988872 0.736117 0.898632
O O1 0.861058 0.138943 0.382558
O O2 0.785241 0.077070 0.308654
O O3 0.729122 0.080596 0.394185
O O4 0.774551 0.001083 0.381376
O O5 0.141108 0.282216 0.766011
O O6 0.065718 0.342706 0.772159
O O7 0.005140 0.215946 0.766684
O O8 0.202007 0.797994 0.291373
O O9 0.246900 0.913567 0.333334
O O10 0.239325 0.905896 0.239569
O O11 0.755443 0.877722 0.208927
O O12 0.723043 0.772187 0.152915
O O13 0.548443 0.274222 0.262248
O O14 0.594883 0.405118 0.259634
O O15 0.525548 0.333334 0.333334
O O16 0.466263 0.321921 0.249178
#
# Coordination Sequence:
#
# PCOD9579165 Si02
#       6
#    36  36  36  36  36  36
#     4  11  21  35  57  86 115 147 187 234 285 338
#     4  11  23  37  57  84 115 150 191 235 281 337
#     4  10  19  36  60  82 107 147 191 232 280 338
#     4  11  23  38  57  81 110 145 189 235 281 339
#     4  10  20  34  52  73 102 147 199 242 277 323
#     4  12  22  36  53  82 115 148 182 230 295 342
#
# _framework density 17.391859
#
# number of rings (size 3 to 8) (size 9 to 14) (size 15 to 20)
#    0.000    1.167    3.333    4.167    0.000    5.333 
#    0.000    0.000    0.000    0.667    0.000    0.000 
#    0.000    0.000    0.000    5.333    0.000    1.333 
#
# Total GULP energy -402168.965918 kJ/mol
# GULP energy per Si atom -5585.680082 kJ/mol
# Density = 1.735227 g / cm^3
# Si number density = 17.391859 Si / 1000 Ang^3
#
#
#
# Elastic Constant Matrix: (Units=GPa)
#
#
# Indices 1 2 3 4 5 6 
#
# 1 96.2415 54.4932 25.1798 5.3623 -0.0001 0.0000
# 2 54.4932 96.2415 25.1798 -5.3623 0.0001 0.0000
# 3 25.1798 25.1798 52.2949 0.0000 0.0000 0.0000
# 4 5.3623 -5.3623 0.0000 15.4968 0.0000 0.0001
# 5 -0.0001 0.0001 0.0000 0.0000 15.4968 5.3623
# 6 0.0000 0.0000 0.0000 0.0001 5.3623 20.8742
#
#
#
# Elastic Compliance Matrix: (Units=1/GPa)
#
#
# Indices 1 2 3 4 5 6 
#
# 1 0.017098 -0.009192 -0.003807 -0.009097 0.000000 0.000000
# 2 -0.009192 0.017098 -0.003807 0.009097 0.000000 0.000000
# 3 -0.003807 -0.003807 0.022788 0.000000 0.000000 0.000000
# 4 -0.009097 0.009097 0.000000 0.070825 0.000000 0.000000
# 5 0.000000 0.000000 0.000000 0.000000 0.070825 -0.018194
# 6 0.000000 0.000000 0.000000 0.000000 -0.018194 0.052580
#
#
# Mechanical properties :
#
#
# Convention : Reuss Voigt Hill
#
# Bulk Modulus (GPa) = 42.78384 50.49815 46.64100
# Shear Modulus (GPa) = 17.08725 19.70190 18.39457
#
# Velocity S-wave (km/s) = 3.13786 3.36939 3.25569
# Velocity P-wave (km/s) = 6.14667 6.65099 6.40380
#
# Compressibility (1/GPa) = 0.02337331
#
# Stress axis : x y z
#
# Youngs Moduli (GPa) = 58.48652 58.48652 43.88246
#
# Poissons Ratio (x) = 0.53761 0.16705
# Poissons Ratio (y) = 0.53761 0.16705
# Poissons Ratio (z) = 0.22264 0.22264
#
# Static dielectric constant tensor:
#      x y z
#    x 1.592210 0.000000 0.000000 
#    y 0.000000 1.592210 0.000000 
#    z 0.000000 0.000000 1.661660 
# 
# From -- ./inp_files/9707.got.cif
#   From: 2010.05.17/outbox.cif.g08.bks.cpg/sg166_5_cif.got.tgz:9707.got - 2010.05.20 11:04:41.
