data_PCOD9579837
_publ_section_title
;
Structure prediction by ZEFSAII (Michael W. Deem and Ramdas Pophale) SiO2 
 PCOD9579837
Probable space group: P 61
;
_chemical_formula_sum "Si O2"
_cell_formula_units_Z 42
_cell_length_a 14.216078
_cell_length_b 14.216078
_cell_length_c 10.078956
_cell_angle_alpha 90.000000
_cell_angle_beta 90.000000
_cell_angle_gamma 120.000000
_cell_volume 1764.029227
_symmetry_space_group_name_H-M "P 61"
_symmetry_group_IT_number 169
_symmetry_cell_setting 'hexagonal'
loop_
_space_group_symop_operation_xyz
x,y,z
x-y,x,1/6+z
-y,x-y,1/3+z
-x,-y,1/2+z
-x+y,-x,2/3+z
y,-x+y,5/6+z
loop_
_atom_site_type_symbol
_atom_site_label
_atom_site_fract_x
_atom_site_fract_y
_atom_site_fract_z
Si Si1 0.508398 0.825437 0.667130
Si Si2 0.110362 0.559450 0.726756
Si Si3 0.083477 0.813884 0.386536
Si Si4 0.632890 0.134296 0.345910
Si Si5 0.302844 0.977104 0.311303
Si Si6 0.590036 0.805228 0.305415
Si Si7 0.892225 0.808573 0.574073
O O1 0.517790 0.722508 0.621639
O O2 0.432145 0.806979 0.793835
O O3 0.623158 0.931567 0.705012
O O4 0.451105 0.849903 0.542389
O O5 0.985664 0.531246 0.721041
O O6 0.106134 0.454304 0.663006
O O7 0.183002 0.667939 0.642882
O O8 0.034868 0.713555 0.287778
O O9 0.157802 0.802554 0.497402
O O10 0.985551 0.820032 0.464065
O O11 0.171801 0.916353 0.300419
O O12 0.697225 0.129319 0.214896
O O13 0.686782 0.893135 0.399361
O O14 0.844778 0.884788 0.539168
#
# Coordination Sequence:
#
# PCOD9579837 Si02
#       7
#     6   6   6   6   6   6   6
#     4  10  24  42  62  91 127 172 218 279 334 403
#     4  10  23  41  66  92 129 172 216 277 330 406
#     4  11  21  38  66  97 128 171 220 275 332 411
#     4  10  21  44  60  90 130 166 222 279 333 407
#     4  11  24  40  65  97 129 174 223 271 346 400
#     4  10  20  38  67  91 125 164 217 270 330 390
#     4  10  19  35  60  92 124 161 212 261 313 391
#
# _framework density 23.809127
#
# number of rings (size 3 to 8) (size 9 to 14) (size 15 to 20)
#    0.000    1.714    2.857    2.571    6.000    0.000 
#   15.429    4.286    0.000    0.000    0.000    0.000 
#    0.000    0.000    0.000    0.000    0.000    0.000 
#
# Total GULP energy -234356.369668 kJ/mol
# GULP energy per Si atom -5579.913564 kJ/mol
# Density = 2.375494 g / cm^3
# Si number density = 23.809127 Si / 1000 Ang^3
#
#
#
# Elastic Constant Matrix: (Units=GPa)
#
#
# Indices 1 2 3 4 5 6 
#
# 1 56.4805 0.3246 0.8206 0.0000 0.0000 0.0000
# 2 0.3246 56.4805 0.8206 0.0000 0.0000 0.0000
# 3 0.8206 0.8206 26.0533 0.0000 0.0000 0.0000
# 4 0.0000 0.0000 0.0000 32.6034 0.0000 0.0000
# 5 0.0000 0.0000 0.0000 0.0000 32.6034 0.0000
# 6 0.0000 0.0000 0.0000 0.0000 0.0000 28.0780
#
#
#
# Elastic Compliance Matrix: (Units=1/GPa)
#
#
# Indices 1 2 3 4 5 6 
#
# 1 0.017714 -0.000094 -0.000555 0.000000 0.000000 0.000000
# 2 -0.000094 0.017714 -0.000555 0.000000 0.000000 0.000000
# 3 -0.000555 -0.000555 0.038418 0.000000 0.000000 0.000000
# 4 0.000000 0.000000 0.000000 0.030672 0.000000 0.000000
# 5 0.000000 0.000000 0.000000 0.000000 0.030672 0.000000
# 6 0.000000 0.000000 0.000000 0.000000 0.000000 0.035615
#
#
# Mechanical properties :
#
#
# Convention : Reuss Voigt Hill
#
# Bulk Modulus (GPa) = 13.99813 15.88288 14.94051
# Shear Modulus (GPa) = 25.37763 27.79354 26.58559
#
# Velocity S-wave (km/s) = 3.26832 3.42035 3.34520
# Velocity P-wave (km/s) = 4.48716 4.72058 4.60535
#
# Compressibility (1/GPa) = 0.07143809
#
# Stress axis : x y z
#
# Youngs Moduli (GPa) = 56.45312 56.45312 26.02956
#
# Poissons Ratio (x) = 0.00529 0.01445
# Poissons Ratio (y) = 0.00529 0.01445
# Poissons Ratio (z) = 0.03133 0.03133
#
# Static dielectric constant tensor:
#      x y z
#    x 1.949710 0.000000 0.000000 
#    y 0.000000 1.949710 0.000000 
#    z 0.000000 0.000000 1.941410 
# 
# From -- ./inp_files/922.got.cif
#   From: 2010.05.17/outbox.cif.g08.bks.cpg/sg169_cif.got.tgz:922.got - 2010.05.20 11:12:54.
