data_PCOD9579026
_publ_section_title
;
Structure prediction by ZEFSAII (Michael W. Deem and Ramdas Pophale) SiO2 
 PCOD9579026
Probable space group: R -3 M
;
_chemical_formula_sum "Si O2"
_cell_formula_units_Z 252
_cell_length_a 32.355639
_cell_length_b 32.355639
_cell_length_c 15.112531
_cell_angle_alpha 90.000000
_cell_angle_beta 90.000000
_cell_angle_gamma 120.000000
_cell_volume 13701.490026
_symmetry_space_group_name_H-M "R -3 M"
_symmetry_group_IT_number 166
_symmetry_cell_setting 'hexagonal'
loop_
_space_group_symop_operation_xyz
x,y,z
-y,x-y,z
-x+y,-x,z
x-y,-y,-z
-x,-x+y,-z
y,x,-z
-x,-y,-z
y,-x+y,-z
x-y,x,-z
-x+y,y,z
x,x-y,z
-y,-x,z
2/3+x,1/3+y,1/3+z
2/3-y,1/3+x-y,1/3+z
2/3-x+y,1/3-x,1/3+z
2/3+x-y,1/3-y,1/3-z
2/3-x,1/3-x+y,1/3-z
2/3+y,1/3+x,1/3-z
2/3-x,1/3-y,1/3-z
2/3+y,1/3-x+y,1/3-z
2/3+x-y,1/3+x,1/3-z
2/3-x+y,1/3+y,1/3+z
2/3+x,1/3+x-y,1/3+z
2/3-y,1/3-x,1/3+z
1/3+x,2/3+y,2/3+z
1/3-y,2/3+x-y,2/3+z
1/3-x+y,2/3-x,2/3+z
1/3+x-y,2/3-y,2/3-z
1/3-x,2/3-x+y,2/3-z
1/3+y,2/3+x,2/3-z
1/3-x,2/3-y,2/3-z
1/3+y,2/3-x+y,2/3-z
1/3+x-y,2/3+x,2/3-z
1/3-x+y,2/3+y,2/3+z
1/3+x,2/3+x-y,2/3+z
1/3-y,2/3-x,2/3+z
loop_
_atom_site_type_symbol
_atom_site_label
_atom_site_fract_x
_atom_site_fract_y
_atom_site_fract_z
Si Si1 0.571115 0.333276 0.048175
Si Si2 0.209964 0.221806 0.868001
Si Si3 0.805540 0.704436 0.414618
Si Si4 0.360251 0.983831 0.764786
Si Si5 0.468948 0.030066 0.421009
Si Si6 0.850447 0.797158 0.306738
Si Si7 0.448280 0.803784 0.758432
O O1 0.582486 0.291243 0.028282
O O2 0.615076 0.384925 0.023380
O O3 0.519199 0.317986 0.007439
O O4 0.563037 0.334336 0.154271
O O5 0.266282 0.246504 0.871584
O O6 0.198762 0.255655 0.929414
O O7 0.188338 0.221707 0.771525
O O8 0.180722 0.167908 0.898557
O O9 0.849330 0.698660 0.458167
O O10 0.750913 0.686440 0.443863
O O11 0.792593 0.671860 0.326862
O O12 0.829599 0.759726 0.386384
O O13 0.333842 0.000509 0.833334
O O14 0.333334 0.974894 0.666667
O O15 0.521753 0.043505 0.450626
O O16 0.433449 0.000000 0.500000
O O17 0.898645 0.797290 0.275773
O O18 0.411098 0.822195 0.757497
O O19 0.444142 0.777476 0.666667
#
# Coordination Sequence:
#
# PCOD9579026 Si02
#       7
#    36  36  36  36  36  36  36
#     4   9  17  29  46  68  95 128 169 214 262 316
#     4  11  19  31  47  72 102 131 171 212 269 316
#     4  10  20  34  53  76 101 131 172 220 266 318
#     4  12  24  38  55  80 111 145 180 220 270 324
#     4  10  17  27  48  77 105 129 156 205 278 340
#     4   9  17  31  52  76 103 135 168 210 269 329
#     4  10  21  32  42  60  92 136 180 218 258 308
#
# _framework density 18.392158999999999
#
# number of rings (size 3 to 8) (size 9 to 14) (size 15 to 20)
#    0.000    1.857    2.857    2.714    0.000    2.286 
#    0.000    0.000    0.000    3.571    0.000    0.000 
#    0.000    0.000    0.000    0.000    0.000   20.429 
#
# Total GULP energy -467684.502697 kJ/mol
# GULP energy per Si atom -5567.672651 kJ/mol
# Density = 1.835030 g / cm^3
# Si number density = 18.392159 Si / 1000 Ang^3
#
#
#
# Elastic Constant Matrix: (Units=GPa)
#
#
# Indices 1 2 3 4 5 6 
#
# 1 115.6287 53.5406 11.4262 1.3590 -0.0003 0.0000
# 2 53.5406 115.6288 11.4271 -1.3590 0.0003 0.0000
# 3 11.4262 11.4271 13.8611 -0.0002 -0.0017 -0.0002
# 4 1.3590 -1.3590 -0.0002 13.2055 -0.0001 0.0000
# 5 -0.0003 0.0003 -0.0017 -0.0001 13.2047 1.3589
# 6 0.0000 0.0000 -0.0002 0.0000 1.3589 31.0441
#
#
#
# Elastic Compliance Matrix: (Units=1/GPa)
#
#
# Indices 1 2 3 4 5 6 
#
# 1 0.011415 -0.004763 -0.005483 -0.001665 0.000000 0.000000
# 2 -0.004763 0.011416 -0.005484 0.001665 -0.000001 0.000000
# 3 -0.005483 -0.005484 0.081185 0.000001 0.000010 0.000000
# 4 -0.001665 0.001665 0.000001 0.076069 0.000000 0.000000
# 5 0.000000 -0.000001 0.000010 0.000000 0.076073 -0.003330
# 6 0.000000 0.000000 0.000000 0.000000 -0.003330 0.032358
#
#
# Mechanical properties :
#
#
# Convention : Reuss Voigt Hill
#
# Bulk Modulus (GPa) = 13.78273 44.21183 28.99728
# Shear Modulus (GPa) = 14.52799 22.73919 18.63359
#
# Velocity S-wave (km/s) = 2.81357 3.51999 3.18642
# Velocity P-wave (km/s) = 4.25029 6.37268 5.41646
#
# Compressibility (1/GPa) = 0.07255456
#
# Stress axis : x y z
#
# Youngs Moduli (GPa) = 87.60051 87.59945 12.31749
#
# Poissons Ratio (x) = 0.41728 0.06754
# Poissons Ratio (y) = 0.41728 0.06755
# Poissons Ratio (z) = 0.48033 0.48042
#
# Static dielectric constant tensor:
#      x y z
#    x 1.728490 0.000000 0.000000 
#    y 0.000000 1.728490 0.000000 
#    z 0.000000 0.000000 1.656900 
# 
# From -- ./inp_files/5876.got.cif
#   From: 2010.05.17/outbox.cif.g08.bks.cpg/sg166_3_cif.got.tgz:5876.got - 2010.05.20 11:04:41.
