data_PCOD9579595
_publ_section_title
;
Structure prediction by ZEFSAII (Michael W. Deem and Ramdas Pophale) SiO2 
 PCOD9579595
Probable space group: R -3 C 
;
_chemical_formula_sum "Si O2"
_cell_formula_units_Z 144
_cell_length_a 18.923575
_cell_length_b 18.923575
_cell_length_c 22.940582
_cell_angle_alpha 90.000000
_cell_angle_beta 90.000000
_cell_angle_gamma 120.000000
_cell_volume 7114.451694
_symmetry_space_group_name_H-M "R -3 C "
_symmetry_group_IT_number 167
_symmetry_cell_setting 'hexagonal'
loop_
_space_group_symop_operation_xyz
x,y,z
-y,x-y,z
-x+y,-x,z
x-y,-y,1/2-z
-x,-x+y,1/2-z
y,x,1/2-z
-x,-y,-z
y,-x+y,-z
x-y,x,-z
-x+y,y,1/2+z
x,x-y,1/2+z
-y,-x,1/2+z
2/3+x,1/3+y,1/3+z
2/3-y,1/3+x-y,1/3+z
2/3-x+y,1/3-x,1/3+z
2/3+x-y,1/3-y,5/6-z
2/3-x,1/3-x+y,5/6-z
2/3+y,1/3+x,5/6-z
2/3-x,1/3-y,1/3-z
2/3+y,1/3-x+y,1/3-z
2/3+x-y,1/3+x,1/3-z
2/3-x+y,1/3+y,5/6+z
2/3+x,1/3+x-y,5/6+z
2/3-y,1/3-x,5/6+z
1/3+x,2/3+y,2/3+z
1/3-y,2/3+x-y,2/3+z
1/3-x+y,2/3-x,2/3+z
1/3+x-y,2/3-y,1/6-z
1/3-x,2/3-x+y,1/6-z
1/3+y,2/3+x,1/6-z
1/3-x,2/3-y,2/3-z
1/3+y,2/3-x+y,2/3-z
1/3+x-y,2/3+x,2/3-z
1/3-x+y,2/3+y,1/6+z
1/3+x,2/3+x-y,1/6+z
1/3-y,2/3-x,1/6+z
loop_
_atom_site_type_symbol
_atom_site_label
_atom_site_fract_x
_atom_site_fract_y
_atom_site_fract_z
Si Si1 0.425433 0.276718 0.200409
Si Si2 0.485843 0.573935 0.426255
Si Si3 0.507126 0.731156 0.189834
Si Si4 0.189017 0.317724 0.643247
O O1 0.446178 0.256339 0.136462
O O2 0.328204 0.223165 0.210668
O O3 0.472723 0.252968 0.248882
O O4 0.445522 0.368807 0.206145
O O5 0.510714 0.666667 0.416667
O O6 0.479192 0.538781 0.362110
O O7 0.442576 0.635353 0.186908
O O8 0.593938 0.745233 0.167763
O O9 0.154674 0.333334 0.583334
#
# Coordination Sequence:
#
# PCOD9579595 Si02
#       4
#    36  36  36  36
#     4  10  22  42  62  95 138 172 227 285 336 411
#     4  10  23  39  64  97 135 179 221 285 341 405
#     4  11  24  41  65  97 131 180 226 283 343 413
#     4  11  22  41  66  95 133 175 226 276 341 409
#
# _framework density 20.240490999999999
#
# number of rings (size 3 to 8) (size 9 to 14) (size 15 to 20)
#    0.000    1.500    2.500    1.750    7.000    0.000 
#    0.000    0.000    0.000    4.000    0.000    0.000 
#    0.000    0.000    0.000    0.000    0.000    0.000 
#
# Total GULP energy -267797.024786 kJ/mol
# GULP energy per Si atom -5579.104683 kJ/mol
# Density = 2.019442 g / cm^3
# Si number density = 20.240491 Si / 1000 Ang^3
#
#
#
# Elastic Constant Matrix: (Units=GPa)
#
#
# Indices 1 2 3 4 5 6 
#
# 1 64.5751 35.6929 32.3796 3.4986 -0.0013 0.0000
# 2 35.6929 64.5751 32.3796 -3.4986 0.0013 0.0000
# 3 32.3796 32.3796 134.2769 0.0000 0.0000 0.0000
# 4 3.4986 -3.4986 0.0000 20.4103 0.0000 0.0013
# 5 -0.0013 0.0013 0.0000 0.0000 20.4103 3.4986
# 6 0.0000 0.0000 0.0000 0.0013 3.4986 14.4411
#
#
#
# Elastic Compliance Matrix: (Units=1/GPa)
#
#
# Indices 1 2 3 4 5 6 
#
# 1 0.023968 -0.012155 -0.002849 -0.006192 0.000002 0.000000
# 2 -0.012155 0.023968 -0.002849 0.006192 -0.000002 0.000000
# 3 -0.002849 -0.002849 0.008821 0.000000 0.000000 0.000000
# 4 -0.006192 0.006192 0.000000 0.051118 0.000000 -0.000005
# 5 0.000002 -0.000002 0.000000 0.000000 0.051118 -0.012384
# 6 0.000000 0.000000 0.000000 -0.000005 -0.012384 0.072247
#
#
# Mechanical properties :
#
#
# Convention : Reuss Voigt Hill
#
# Bulk Modulus (GPa) = 47.49951 51.59236 49.54594
# Shear Modulus (GPa) = 18.25065 21.91733 20.08399
#
# Velocity S-wave (km/s) = 3.00607 3.29423 3.15345
# Velocity P-wave (km/s) = 5.96382 6.32569 6.14742
#
# Compressibility (1/GPa) = 0.02105285
#
# Stress axis : x y z
#
# Youngs Moduli (GPa) = 41.72173 41.72173 113.36422
#
# Poissons Ratio (x) = 0.50714 0.32293
# Poissons Ratio (y) = 0.50714 0.32293
# Poissons Ratio (z) = 0.11885 0.11885
#
# Static dielectric constant tensor:
#      x y z
#    x 1.720840 0.000000 0.000000 
#    y 0.000000 1.720840 0.000000 
#    z 0.000000 0.000000 1.053800 
# 
# From -- ./inp_files/4307.got.cif
#   From: 2010.05.17/outbox.cif.g08.bks.cpg/sg167_3_cif.got.tgz:4307.got - 2010.05.20 11:09:15.
