data_PCOD9579274
_publ_section_title
;
Structure prediction by ZEFSAII (Michael W. Deem and Ramdas Pophale) SiO2 
 PCOD9579274
Probable space group: R -3 M
;
_chemical_formula_sum "Si O2"
_cell_formula_units_Z 216
_cell_length_a 23.972425
_cell_length_b 23.972425
_cell_length_c 23.099008
_cell_angle_alpha 90.000000
_cell_angle_beta 90.000000
_cell_angle_gamma 120.000000
_cell_volume 11496.030255
_symmetry_space_group_name_H-M "R -3 M"
_symmetry_group_IT_number 166
_symmetry_cell_setting 'hexagonal'
loop_
_space_group_symop_operation_xyz
x,y,z
-y,x-y,z
-x+y,-x,z
x-y,-y,-z
-x,-x+y,-z
y,x,-z
-x,-y,-z
y,-x+y,-z
x-y,x,-z
-x+y,y,z
x,x-y,z
-y,-x,z
2/3+x,1/3+y,1/3+z
2/3-y,1/3+x-y,1/3+z
2/3-x+y,1/3-x,1/3+z
2/3+x-y,1/3-y,1/3-z
2/3-x,1/3-x+y,1/3-z
2/3+y,1/3+x,1/3-z
2/3-x,1/3-y,1/3-z
2/3+y,1/3-x+y,1/3-z
2/3+x-y,1/3+x,1/3-z
2/3-x+y,1/3+y,1/3+z
2/3+x,1/3+x-y,1/3+z
2/3-y,1/3-x,1/3+z
1/3+x,2/3+y,2/3+z
1/3-y,2/3+x-y,2/3+z
1/3-x+y,2/3-x,2/3+z
1/3+x-y,2/3-y,2/3-z
1/3-x,2/3-x+y,2/3-z
1/3+y,2/3+x,2/3-z
1/3-x,2/3-y,2/3-z
1/3+y,2/3-x+y,2/3-z
1/3+x-y,2/3+x,2/3-z
1/3-x+y,2/3+y,2/3+z
1/3+x,2/3+x-y,2/3+z
1/3-y,2/3-x,2/3+z
loop_
_atom_site_type_symbol
_atom_site_label
_atom_site_fract_x
_atom_site_fract_y
_atom_site_fract_z
Si Si1 0.874016 0.874460 0.681367
Si Si2 0.169652 0.699424 0.230238
Si Si3 0.332770 0.790253 0.735000
Si Si4 0.730419 0.585310 0.573770
Si Si5 0.025252 0.362545 0.064661
Si Si6 0.734008 0.595725 0.439083
O O1 0.857302 0.928651 0.697420
O O2 0.861671 0.858350 0.612945
O O3 0.834561 0.810076 0.719340
O O4 0.948583 0.897166 0.692024
O O5 0.225140 0.774861 0.224994
O O6 0.156589 0.666667 0.166667
O O7 0.102555 0.686967 0.257868
O O8 0.392016 0.784031 0.760866
O O9 0.264259 0.735742 0.758519
O O10 0.333334 0.779581 0.666667
O O11 0.350724 0.863587 0.740863
O O12 0.806124 0.612247 0.590230
O O13 0.701161 0.631868 0.578829
O O14 0.726855 0.573905 0.505573
O O15 0.049165 0.317395 0.094442
O O16 0.000000 0.336699 0.000000
O O17 0.807548 0.615096 0.421630
#
# Coordination Sequence:
#
# PCOD9579274 Si02
#       6
#    36  36  36  36  36  36
#     4  10  21  38  60  88 122 159 199 245 300 360
#     4  11  23  39  63  92 122 155 199 251 303 359
#     4   9  17  32  55  82 111 146 192 245 298 350
#     4  10  21  39  60  83 114 153 198 245 291 348
#     4  12  23  39  60  88 117 157 200 245 298 355
#     4  10  22  38  58  85 120 157 196 247 301 354
#
# _framework density 18.789093999999999
#
# number of rings (size 3 to 8) (size 9 to 14) (size 15 to 20)
#    0.000    1.667    1.667    3.333    0.000    4.667 
#    0.000    0.833    0.000    6.667    0.000    0.000 
#    0.000    0.000    0.000    0.000    0.000    0.000 
#
# Total GULP energy -400895.419543 kJ/mol
# GULP energy per Si atom -5567.991938 kJ/mol
# Density = 1.874633 g / cm^3
# Si number density = 18.789094 Si / 1000 Ang^3
#
#
#
# Elastic Constant Matrix: (Units=GPa)
#
#
# Indices 1 2 3 4 5 6 
#
# 1 105.0416 79.8065 28.6494 6.4788 -0.0003 0.0000
# 2 79.8065 105.0416 28.6494 -6.4788 0.0003 0.0000
# 3 28.6494 28.6494 75.1915 0.0000 0.0000 0.0000
# 4 6.4788 -6.4788 0.0000 10.3157 0.0000 0.0003
# 5 -0.0003 0.0003 0.0000 0.0000 10.3157 6.4788
# 6 0.0000 0.0000 0.0000 0.0003 6.4788 12.6175
#
#
#
# Elastic Compliance Matrix: (Units=1/GPa)
#
#
# Indices 1 2 3 4 5 6 
#
# 1 0.032312 -0.026178 -0.002337 -0.036735 0.000002 0.000000
# 2 -0.026178 0.032312 -0.002337 0.036735 -0.000002 0.000000
# 3 -0.002337 -0.002337 0.015080 0.000000 0.000000 0.000000
# 4 -0.036735 0.036735 0.000000 0.143083 0.000000 -0.000003
# 5 0.000002 -0.000002 0.000000 0.000000 0.143083 -0.073470
# 6 0.000000 0.000000 0.000000 -0.000003 -0.073470 0.116980
#
#
# Mechanical properties :
#
#
# Convention : Reuss Voigt Hill
#
# Bulk Modulus (GPa) = 55.55564 62.16504 58.86034
# Shear Modulus (GPa) = 9.08175 16.52774 12.80474
#
# Velocity S-wave (km/s) = 2.20091 2.96910 2.61339
# Velocity P-wave (km/s) = 6.00757 6.70161 6.36406
#
# Compressibility (1/GPa) = 0.01799997
#
# Stress axis : x y z
#
# Youngs Moduli (GPa) = 30.94813 30.94813 66.31084
#
# Poissons Ratio (x) = 0.81015 0.15499
# Poissons Ratio (y) = 0.81015 0.15499
# Poissons Ratio (z) = 0.07234 0.07234
#
# Static dielectric constant tensor:
#      x y z
#    x 1.664870 0.000000 0.000000 
#    y 0.000000 1.664870 0.000000 
#    z 0.000000 0.000000 1.556810 
# 
# From -- ./inp_files/8452.got.cif
#   From: 2010.05.17/outbox.cif.g08.bks.cpg/sg166_5_cif.got.tgz:8452.got - 2010.05.20 11:04:41.
