data_PCOD9579581
_publ_section_title
;
Structure prediction by ZEFSAII (Michael W. Deem and Ramdas Pophale) SiO2 
 PCOD9579581
Probable space group: R -3 C 
;
_chemical_formula_sum "Si O2"
_cell_formula_units_Z 108
_cell_length_a 22.320941
_cell_length_b 22.320941
_cell_length_c 11.922098
_cell_angle_alpha 90.000000
_cell_angle_beta 90.000000
_cell_angle_gamma 120.000000
_cell_volume 5144.087155
_symmetry_space_group_name_H-M "R -3 C "
_symmetry_group_IT_number 167
_symmetry_cell_setting 'hexagonal'
loop_
_space_group_symop_operation_xyz
x,y,z
-y,x-y,z
-x+y,-x,z
x-y,-y,1/2-z
-x,-x+y,1/2-z
y,x,1/2-z
-x,-y,-z
y,-x+y,-z
x-y,x,-z
-x+y,y,1/2+z
x,x-y,1/2+z
-y,-x,1/2+z
2/3+x,1/3+y,1/3+z
2/3-y,1/3+x-y,1/3+z
2/3-x+y,1/3-x,1/3+z
2/3+x-y,1/3-y,5/6-z
2/3-x,1/3-x+y,5/6-z
2/3+y,1/3+x,5/6-z
2/3-x,1/3-y,1/3-z
2/3+y,1/3-x+y,1/3-z
2/3+x-y,1/3+x,1/3-z
2/3-x+y,1/3+y,5/6+z
2/3+x,1/3+x-y,5/6+z
2/3-y,1/3-x,5/6+z
1/3+x,2/3+y,2/3+z
1/3-y,2/3+x-y,2/3+z
1/3-x+y,2/3-x,2/3+z
1/3+x-y,2/3-y,1/6-z
1/3-x,2/3-x+y,1/6-z
1/3+y,2/3+x,1/6-z
1/3-x,2/3-y,2/3-z
1/3+y,2/3-x+y,2/3-z
1/3+x-y,2/3+x,2/3-z
1/3-x+y,2/3+y,1/6+z
1/3+x,2/3+x-y,1/6+z
1/3-y,2/3-x,1/6+z
loop_
_atom_site_type_symbol
_atom_site_label
_atom_site_fract_x
_atom_site_fract_y
_atom_site_fract_z
Si Si1 0.415631 0.192899 0.945698
Si Si2 0.780321 0.084871 0.177930
Si Si3 0.439612 0.104325 0.788318
O O1 0.417643 0.154390 0.057442
O O2 0.378191 0.942659 0.604908
O O3 0.441027 0.273598 0.953261
O O4 0.333334 0.152750 0.916667
O O5 0.833334 0.166667 0.166667
O O6 0.708474 0.075980 0.223600
O O7 0.785672 0.943516 0.011597
#
# Coordination Sequence:
#
# PCOD9579581 Si02
#       3
#    36  36  36
#     4  10  22  39  61  94 129 177 221 274 340 400
#     4  11  23  44  63  99 134 181 228 273 349 409
#     4  11  22  43  62  93 142 172 227 283 336 411
#
# _framework density 20.994979000000001
#
# number of rings (size 3 to 8) (size 9 to 14) (size 15 to 20)
#    0.000    1.333    6.667    1.000    0.000    9.333 
#    6.000    0.000    0.000    0.667    0.000    0.000 
#    0.000    0.000    0.000    0.000    0.000    0.000 
#
# Total GULP energy -201096.337847 kJ/mol
# GULP energy per Si atom -5586.009385 kJ/mol
# Density = 2.094719 g / cm^3
# Si number density = 20.994979 Si / 1000 Ang^3
#
#
#
# Elastic Constant Matrix: (Units=GPa)
#
#
# Indices 1 2 3 4 5 6 
#
# 1 114.1438 49.4147 30.0069 5.0950 0.0002 0.0000
# 2 49.4147 114.1438 30.0069 -5.0950 -0.0002 0.0000
# 3 30.0069 30.0069 82.8855 0.0000 0.0000 0.0000
# 4 5.0950 -5.0950 0.0000 36.1767 0.0000 -0.0002
# 5 0.0002 -0.0002 0.0000 0.0000 36.1767 5.0950
# 6 0.0000 0.0000 0.0000 -0.0002 5.0950 32.3645
#
#
#
# Elastic Compliance Matrix: (Units=1/GPa)
#
#
# Indices 1 2 3 4 5 6 
#
# 1 0.011425 -0.004374 -0.002553 -0.002225 0.000000 0.000000
# 2 -0.004374 0.011425 -0.002553 0.002225 0.000000 0.000000
# 3 -0.002553 -0.002553 0.013913 0.000000 0.000000 0.000000
# 4 -0.002225 0.002225 0.000000 0.028269 0.000000 0.000000
# 5 0.000000 0.000000 0.000000 0.000000 0.028269 -0.004450
# 6 0.000000 0.000000 0.000000 0.000000 -0.004450 0.031599
#
#
# Mechanical properties :
#
#
# Convention : Reuss Voigt Hill
#
# Bulk Modulus (GPa) = 56.16669 58.89221 57.52945
# Shear Modulus (GPa) = 33.37945 34.39321 33.88633
#
# Velocity S-wave (km/s) = 3.99165 4.05181 4.02185
# Velocity P-wave (km/s) = 6.93216 7.07115 7.00200
#
# Compressibility (1/GPa) = 0.01780415
#
# Stress axis : x y z
#
# Youngs Moduli (GPa) = 87.52772 87.52772 71.87525
#
# Poissons Ratio (x) = 0.38288 0.18346
# Poissons Ratio (y) = 0.38288 0.18346
# Poissons Ratio (z) = 0.22342 0.22342
#
# Static dielectric constant tensor:
#      x y z
#    x 1.796810 0.000000 0.000000 
#    y 0.000000 1.796810 0.000000 
#    z 0.000000 0.000000 2.043520 
# 
# From -- ./inp_files/1368.got.cif
#   From: 2010.05.17/outbox.cif.g08.bks.cpg/sg167_1_cif.got.tgz:1368.got - 2010.05.20 11:09:15.
