data_PCOD9579996
_publ_section_title
;
Structure prediction by ZEFSAII (Michael W. Deem and Ramdas Pophale) SiO2 
 PCOD9579996
Probable space group: P 61
;
_chemical_formula_sum "Si O2"
_cell_formula_units_Z 36
_cell_length_a 12.732967
_cell_length_b 12.732967
_cell_length_c 13.810031
_cell_angle_alpha 90.000000
_cell_angle_beta 90.000000
_cell_angle_gamma 120.000000
_cell_volume 1939.029928
_symmetry_space_group_name_H-M "P 61"
_symmetry_group_IT_number 169
_symmetry_cell_setting 'hexagonal'
loop_
_space_group_symop_operation_xyz
x,y,z
x-y,x,1/6+z
-y,x-y,1/3+z
-x,-y,1/2+z
-x+y,-x,2/3+z
y,-x+y,5/6+z
loop_
_atom_site_type_symbol
_atom_site_label
_atom_site_fract_x
_atom_site_fract_y
_atom_site_fract_z
Si Si1 0.505448 0.505448 0.615790
Si Si2 0.926023 0.289881 0.131791
Si Si3 0.352941 0.904235 0.636297
Si Si4 0.289881 0.926023 0.099789
Si Si5 0.647059 0.551294 0.928617
Si Si6 0.176373 0.088187 0.032457
O O1 0.620015 0.544661 0.545919
O O2 0.474616 0.401249 0.693605
O O3 0.544661 0.620015 0.685661
O O4 0.401248 0.474615 0.537976
O O5 0.791387 0.177864 0.131582
O O6 0.027167 0.254334 0.163444
O O7 0.973747 0.358306 0.029509
O O8 0.426393 0.852787 0.699124
O O9 0.177864 0.791387 0.099998
O O10 0.358307 0.973747 0.202071
O O11 0.254333 0.027167 0.068136
O O12 0.093709 0.093709 0.115790
#
# Coordination Sequence:
#
# PCOD9579996 Si02
#       6
#     6   6   6   6   6   6
#     4  10  22  42  62  86 130 176 212 274 324 376
#     4  11  20  42  66  94 125 168 229 262 332 399
#     4  10  23  40  63  93 126 170 215 272 322 389
#     4  11  20  42  66  94 125 168 229 262 332 399
#     4  10  23  40  63  93 126 170 215 272 322 389
#     4  12  22  40  74  98 126 170 214 286 332 398
#
# _framework density 18.565984
#
# number of rings (size 3 to 8) (size 9 to 14) (size 15 to 20)
#    0.000    1.333    5.000    0.000    0.000    5.333 
#   21.000    0.000    0.000    0.000    0.000    0.000 
#    0.000    0.000    0.000    0.000    0.000    0.000 
#
# Total GULP energy -200680.783590 kJ/mol
# GULP energy per Si atom -5574.466211 kJ/mol
# Density = 1.852373 g / cm^3
# Si number density = 18.565984 Si / 1000 Ang^3
#
#
#
# Elastic Constant Matrix: (Units=GPa)
#
#
# Indices 1 2 3 4 5 6 
#
# 1 81.9913 72.7477 50.0719 0.0000 0.0000 0.0000
# 2 72.7477 81.9913 50.0719 0.0000 0.0000 0.0000
# 3 50.0719 50.0719 128.7409 0.0000 0.0000 0.0000
# 4 0.0000 0.0000 0.0000 22.6460 0.0000 0.0000
# 5 0.0000 0.0000 0.0000 0.0000 22.6460 0.0000
# 6 0.0000 0.0000 0.0000 0.0000 0.0000 4.6218
#
#
#
# Elastic Compliance Matrix: (Units=1/GPa)
#
#
# Indices 1 2 3 4 5 6 
#
# 1 0.058410 -0.049773 -0.003359 0.000000 0.000000 0.000000
# 2 -0.049773 0.058410 -0.003359 0.000000 0.000000 0.000000
# 3 -0.003359 -0.003359 0.010380 0.000000 0.000000 0.000000
# 4 0.000000 0.000000 0.000000 0.044158 0.000000 0.000000
# 5 0.000000 0.000000 0.000000 0.000000 0.044158 0.000000
# 6 0.000000 0.000000 0.000000 0.000000 0.000000 0.216366
#
#
# Mechanical properties :
#
#
# Convention : Reuss Voigt Hill
#
# Bulk Modulus (GPa) = 70.33749 70.94517 70.64133
# Shear Modulus (GPa) = 9.09746 17.97157 13.53451
#
# Velocity S-wave (km/s) = 2.21601 3.11462 2.70292
# Velocity P-wave (km/s) = 6.67196 7.15750 6.91899
#
# Compressibility (1/GPa) = 0.01421717
#
# Stress axis : x y z
#
# Youngs Moduli (GPa) = 17.12042 17.12042 96.33542
#
# Poissons Ratio (x) = 0.85214 0.32359
# Poissons Ratio (y) = 0.85214 0.32359
# Poissons Ratio (z) = 0.05751 0.05751
#
# Static dielectric constant tensor:
#      x y z
#    x 1.654990 0.000000 0.000000 
#    y 0.000000 1.654990 0.000000 
#    z 0.000000 0.000000 1.671400 
# 
# From -- ./inp_files/1164.got.cif
#   From: 2010.05.17/outbox.cif.g08.bks.cpg/sg169_cif.got.tgz:1164.got - 2010.05.20 11:12:54.
