data_PCOD9579791
_publ_section_title
;
Structure prediction by ZEFSAII (Michael W. Deem and Ramdas Pophale) SiO2 
 PCOD9579791
Probable space group: P 61
;
_chemical_formula_sum "Si O2"
_cell_formula_units_Z 48
_cell_length_a 13.478872
_cell_length_b 13.478872
_cell_length_c 13.818875
_cell_angle_alpha 90.000000
_cell_angle_beta 90.000000
_cell_angle_gamma 120.000000
_cell_volume 2174.254704
_symmetry_space_group_name_H-M "P 61"
_symmetry_group_IT_number 169
_symmetry_cell_setting 'hexagonal'
loop_
_space_group_symop_operation_xyz
x,y,z
x-y,x,1/6+z
-y,x-y,1/3+z
-x,-y,1/2+z
-x+y,-x,2/3+z
y,-x+y,5/6+z
loop_
_atom_site_type_symbol
_atom_site_label
_atom_site_fract_x
_atom_site_fract_y
_atom_site_fract_z
Si Si1 0.508824 0.363310 0.382430
Si Si2 0.408725 0.417119 0.019029
Si Si3 0.118483 0.404690 0.867611
Si Si4 0.029039 0.152338 0.913830
Si Si5 0.372512 0.652807 0.279430
Si Si6 0.241151 0.769103 0.792314
Si Si7 0.662212 0.811947 0.999836
Si Si8 0.083706 0.579961 0.362594
O O1 0.542719 0.480101 0.440723
O O2 0.583840 0.313795 0.432790
O O3 0.378543 0.264110 0.403847
O O4 0.540671 0.393572 0.270989
O O5 0.301898 0.418567 0.073323
O O6 0.508415 0.451929 0.098449
O O7 0.392554 0.298265 0.975417
O O8 0.241563 0.513036 0.881206
O O9 0.096155 0.373278 0.755202
O O10 0.099667 0.290309 0.917379
O O11 0.040404 0.453569 0.907676
O O12 0.912337 0.121444 0.853758
O O13 0.099320 0.109716 0.851766
O O14 0.295668 0.532688 0.226040
O O15 0.424269 0.670942 0.386981
O O16 0.586074 0.871895 0.017227
#
# Coordination Sequence:
#
# PCOD9579791 Si02
#       8
#     6   6   6   6   6   6   6   6
#     4  11  22  35  62  96 128 177 214 271 333 404
#     4  11  24  41  62  96 140 181 231 275 337 416
#     4  10  17  36  60  92 131 158 214 281 325 393
#     4   9  20  36  66  97 124 163 220 284 333 379
#     4  11  21  39  63  97 138 173 218 278 342 410
#     4  11  25  42  66  99 144 185 229 285 345 423
#     4  10  19  36  57  95 128 166 216 269 330 393
#     4  11  20  35  62  90 133 173 212 263 333 394
#
# _framework density 22.076529000000001
#
# number of rings (size 3 to 8) (size 9 to 14) (size 15 to 20)
#    0.000    1.500    3.750    2.250    1.750    0.000 
#    0.000    0.000    0.000    3.000    0.000    0.000 
#    0.000    0.500    0.000    0.000    0.000    0.000 
#
# Total GULP energy -267729.734659 kJ/mol
# GULP energy per Si atom -5577.702805 kJ/mol
# Density = 2.202628 g / cm^3
# Si number density = 22.076529 Si / 1000 Ang^3
#
#
#
# Elastic Constant Matrix: (Units=GPa)
#
#
# Indices 1 2 3 4 5 6 
#
# 1 63.3246 16.4669 12.3107 0.0000 0.0000 0.0000
# 2 16.4669 63.3246 12.3107 0.0000 0.0000 0.0000
# 3 12.3107 12.3107 53.5445 0.0000 0.0000 0.0000
# 4 0.0000 0.0000 0.0000 27.5839 0.0000 0.0000
# 5 0.0000 0.0000 0.0000 0.0000 27.5839 0.0000
# 6 0.0000 0.0000 0.0000 0.0000 0.0000 23.4288
#
#
#
# Elastic Compliance Matrix: (Units=1/GPa)
#
#
# Indices 1 2 3 4 5 6 
#
# 1 0.017415 -0.003926 -0.003101 0.000000 0.000000 0.000000
# 2 -0.003926 0.017415 -0.003101 0.000000 0.000000 0.000000
# 3 -0.003101 -0.003101 0.020102 0.000000 0.000000 0.000000
# 4 0.000000 0.000000 0.000000 0.036253 0.000000 0.000000
# 5 0.000000 0.000000 0.000000 0.000000 0.036253 0.000000
# 6 0.000000 0.000000 0.000000 0.000000 0.000000 0.042682
#
#
# Mechanical properties :
#
#
# Convention : Reuss Voigt Hill
#
# Bulk Modulus (GPa) = 28.83870 29.15228 28.99549
# Shear Modulus (GPa) = 24.76011 24.99302 24.87656
#
# Velocity S-wave (km/s) = 3.35260 3.36833 3.36048
# Velocity P-wave (km/s) = 5.29887 5.32553 5.31222
#
# Compressibility (1/GPa) = 0.03467562
#
# Stress axis : x y z
#
# Youngs Moduli (GPa) = 57.42024 57.42024 49.74578
#
# Poissons Ratio (x) = 0.22542 0.15429
# Poissons Ratio (y) = 0.22542 0.15429
# Poissons Ratio (z) = 0.17809 0.17809
#
# Static dielectric constant tensor:
#      x y z
#    x 1.877780 0.000000 0.000000 
#    y 0.000000 1.877780 0.000000 
#    z 0.000000 0.000000 1.821410 
# 
# From -- ./inp_files/1256.got.cif
#   From: 2010.05.17/outbox.cif.g08.bks.cpg/sg169_cif.got.tgz:1256.got - 2010.05.20 11:12:54.
