data_PCOD9579883
_publ_section_title
;
Structure prediction by ZEFSAII (Michael W. Deem and Ramdas Pophale) SiO2 
 PCOD9579883
Probable space group: P 61
;
_chemical_formula_sum "Si O2"
_cell_formula_units_Z 42
_cell_length_a 13.586638
_cell_length_b 13.586638
_cell_length_c 12.114741
_cell_angle_alpha 90.000000
_cell_angle_beta 90.000000
_cell_angle_gamma 120.000000
_cell_volume 1936.728637
_symmetry_space_group_name_H-M "P 61"
_symmetry_group_IT_number 169
_symmetry_cell_setting 'hexagonal'
loop_
_space_group_symop_operation_xyz
x,y,z
x-y,x,1/6+z
-y,x-y,1/3+z
-x,-y,1/2+z
-x+y,-x,2/3+z
y,-x+y,5/6+z
loop_
_atom_site_type_symbol
_atom_site_label
_atom_site_fract_x
_atom_site_fract_y
_atom_site_fract_z
Si Si1 0.708507 0.153125 0.135320
Si Si2 0.671594 0.247951 0.340303
Si Si3 0.121722 0.923711 0.717470
Si Si4 0.328705 0.896368 0.029868
Si Si5 0.461361 0.553025 0.114748
Si Si6 0.409793 0.591219 0.895598
Si Si7 0.145704 0.954370 0.082939
O O1 0.634184 0.171221 0.230349
O O2 0.775717 0.098511 0.192158
O O3 0.792076 0.281132 0.087157
O O4 0.631539 0.076124 0.035773
O O5 0.713912 0.193310 0.431229
O O6 0.778719 0.364002 0.300416
O O7 0.591833 0.289662 0.396125
O O8 0.045420 0.888573 0.606101
O O9 0.046483 0.841840 0.817338
O O10 0.402545 0.866080 0.111426
O O11 0.224946 0.898092 0.089874
O O12 0.421430 0.013430 0.974140
O O13 0.489841 0.581878 0.987469
O O14 0.150505 0.021980 0.194488
#
# Coordination Sequence:
#
# PCOD9579883 Si02
#       7
#     6   6   6   6   6   6   6
#     4  10  20  36  64  90 125 164 211 257 327 404
#     4  10  20  38  61  87 122 169 202 248 322 400
#     4  10  21  38  67  92 121 161 224 277 326 388
#     4  12  22  35  66  93 126 164 216 266 325 401
#     4  10  22  36  56  90 127 163 207 258 323 386
#     4  10  22  39  55  89 133 167 202 260 329 399
#     4  10  21  40  67  95 122 164 222 278 324 386
#
# _framework density 21.686052
#
# number of rings (size 3 to 8) (size 9 to 14) (size 15 to 20)
#    0.000    1.714    0.000    7.714    4.000    0.000 
#    0.000    0.000   18.857    0.000    0.000    0.000 
#    0.000    0.000    0.000    0.000    0.000    0.000 
#
# Total GULP energy -234188.878133 kJ/mol
# GULP energy per Si atom -5575.925670 kJ/mol
# Density = 2.163669 g / cm^3
# Si number density = 21.686052 Si / 1000 Ang^3
#
#
#
# Elastic Constant Matrix: (Units=GPa)
#
#
# Indices 1 2 3 4 5 6 
#
# 1 48.9315 15.7824 19.5798 0.0000 0.0000 0.0000
# 2 15.7824 48.9315 19.5798 0.0000 0.0000 0.0000
# 3 19.5798 19.5798 71.8545 0.0000 0.0000 0.0000
# 4 0.0000 0.0000 0.0000 11.6133 0.0000 0.0000
# 5 0.0000 0.0000 0.0000 0.0000 11.6133 0.0000
# 6 0.0000 0.0000 0.0000 0.0000 0.0000 16.5746
#
#
#
# Elastic Compliance Matrix: (Units=1/GPa)
#
#
# Indices 1 2 3 4 5 6 
#
# 1 0.024335 -0.005832 -0.005042 0.000000 0.000000 0.000000
# 2 -0.005832 0.024335 -0.005042 0.000000 0.000000 0.000000
# 3 -0.005042 -0.005042 0.016665 0.000000 0.000000 0.000000
# 4 0.000000 0.000000 0.000000 0.086108 0.000000 0.000000
# 5 0.000000 0.000000 0.000000 0.000000 0.086108 0.000000
# 6 0.000000 0.000000 0.000000 0.000000 0.000000 0.060333
#
#
# Mechanical properties :
#
#
# Convention : Reuss Voigt Hill
#
# Bulk Modulus (GPa) = 29.84737 31.06687 30.45712
# Shear Modulus (GPa) = 14.66770 15.61191 15.13981
#
# Velocity S-wave (km/s) = 2.60352 2.68602 2.64509
# Velocity P-wave (km/s) = 4.77819 4.89657 4.83774
#
# Compressibility (1/GPa) = 0.03350379
#
# Stress axis : x y z
#
# Youngs Moduli (GPa) = 41.09271 41.09271 60.00632
#
# Poissons Ratio (x) = 0.23963 0.30256
# Poissons Ratio (y) = 0.23963 0.30256
# Poissons Ratio (z) = 0.20719 0.20719
#
# Static dielectric constant tensor:
#      x y z
#    x 1.828420 0.000000 0.000000 
#    y 0.000000 1.828420 0.000000 
#    z 0.000000 0.000000 1.823970 
# 
# From -- ./inp_files/941.got.cif
#   From: 2010.05.17/outbox.cif.g08.bks.cpg/sg169_cif.got.tgz:941.got - 2010.05.20 11:12:54.
