data_PCOD9579289
_publ_section_title
;
Structure prediction by ZEFSAII (Michael W. Deem and Ramdas Pophale) SiO2 
 PCOD9579289
Probable space group: R -3 M
;
_chemical_formula_sum "Si O2"
_cell_formula_units_Z 126
_cell_length_a 26.264202
_cell_length_b 26.264202
_cell_length_c 10.847782
_cell_angle_alpha 90.000000
_cell_angle_beta 90.000000
_cell_angle_gamma 120.000000
_cell_volume 6480.372949
_symmetry_space_group_name_H-M "R -3 M"
_symmetry_group_IT_number 166
_symmetry_cell_setting 'hexagonal'
loop_
_space_group_symop_operation_xyz
x,y,z
-y,x-y,z
-x+y,-x,z
x-y,-y,-z
-x,-x+y,-z
y,x,-z
-x,-y,-z
y,-x+y,-z
x-y,x,-z
-x+y,y,z
x,x-y,z
-y,-x,z
2/3+x,1/3+y,1/3+z
2/3-y,1/3+x-y,1/3+z
2/3-x+y,1/3-x,1/3+z
2/3+x-y,1/3-y,1/3-z
2/3-x,1/3-x+y,1/3-z
2/3+y,1/3+x,1/3-z
2/3-x,1/3-y,1/3-z
2/3+y,1/3-x+y,1/3-z
2/3+x-y,1/3+x,1/3-z
2/3-x+y,1/3+y,1/3+z
2/3+x,1/3+x-y,1/3+z
2/3-y,1/3-x,1/3+z
1/3+x,2/3+y,2/3+z
1/3-y,2/3+x-y,2/3+z
1/3-x+y,2/3-x,2/3+z
1/3+x-y,2/3-y,2/3-z
1/3-x,2/3-x+y,2/3-z
1/3+y,2/3+x,2/3-z
1/3-x,2/3-y,2/3-z
1/3+y,2/3-x+y,2/3-z
1/3+x-y,2/3+x,2/3-z
1/3-x+y,2/3+y,2/3+z
1/3+x,2/3+x-y,2/3+z
1/3-y,2/3-x,2/3+z
loop_
_atom_site_type_symbol
_atom_site_label
_atom_site_fract_x
_atom_site_fract_y
_atom_site_fract_z
Si Si1 0.621176 0.123710 0.438277
Si Si2 0.917794 0.333334 0.833334
Si Si3 0.561034 0.838246 0.386694
Si Si4 0.780654 0.678607 0.942189
O O1 0.566537 0.133074 0.446163
O O2 0.666667 0.163788 0.333334
O O3 0.658393 0.141175 0.561609
O O4 0.595926 0.057271 0.388388
O O5 0.864083 0.287210 0.749364
O O6 0.923606 0.288641 0.926350
O O7 0.538372 0.769186 0.389109
O O8 0.615305 0.866469 0.483448
O O9 0.827532 0.655063 0.955553
#
# Coordination Sequence:
#
# PCOD9579289 Si02
#       4
#    36  18  36  36
#     4   9  18  35  59  82 106 137 178 233 285 323
#     4  12  22  32  54  80 112 154 184 208 256 324
#     4  10  22  38  54  77 112 148 181 220 269 327
#     4   9  20  37  54  78 110 141 181 231 273 313
#
# _framework density 19.443325000000002
#
# number of rings (size 3 to 8) (size 9 to 14) (size 15 to 20)
#    0.000    2.286    0.000    4.286    0.000   12.571 
#    0.000    2.857    0.000    5.143    0.000    2.000 
#    0.000    0.000    0.000    0.000    0.000    0.000 
#
# Total GULP energy -234254.345308 kJ/mol
# GULP energy per Si atom -5577.484412 kJ/mol
# Density = 1.939907 g / cm^3
# Si number density = 19.443325 Si / 1000 Ang^3
#
#
#
# Elastic Constant Matrix: (Units=GPa)
#
#
# Indices 1 2 3 4 5 6 
#
# 1 103.8236 60.2704 13.3365 7.1596 0.0006 0.0000
# 2 60.2704 103.8235 13.3343 -7.1593 -0.0013 -0.0001
# 3 13.3365 13.3343 34.1054 0.0013 -0.0033 -0.0011
# 4 7.1596 -7.1593 0.0013 14.8742 0.0007 -0.0003
# 5 0.0006 -0.0013 -0.0033 0.0007 14.8726 7.1590
# 6 0.0000 -0.0001 -0.0011 -0.0003 7.1590 21.7767
#
#
#
# Elastic Compliance Matrix: (Units=1/GPa)
#
#
# Indices 1 2 3 4 5 6 
#
# 1 0.016892 -0.010385 -0.002545 -0.013129 -0.000002 0.000000
# 2 -0.010385 0.016892 -0.002544 0.013129 0.000001 0.000000
# 3 -0.002545 -0.002544 0.031311 -0.000002 0.000007 -0.000001
# 4 -0.013129 0.013129 -0.000002 0.079870 -0.000003 0.000002
# 5 -0.000002 0.000001 0.000007 -0.000003 0.079878 -0.026260
# 6 0.000000 0.000000 -0.000001 0.000002 -0.026260 0.054553
#
#
# Mechanical properties :
#
#
# Convention : Reuss Voigt Hill
#
# Bulk Modulus (GPa) = 29.28434 46.18164 37.73299
# Shear Modulus (GPa) = 15.54116 20.62546 18.08331
#
# Velocity S-wave (km/s) = 2.83027 3.26052 3.05298
# Velocity P-wave (km/s) = 5.07687 6.16264 5.64592
#
# Compressibility (1/GPa) = 0.03414795
#
# Stress axis : x y z
#
# Youngs Moduli (GPa) = 59.19838 59.19897 31.93791
#
# Poissons Ratio (x) = 0.61476 0.08128
# Poissons Ratio (y) = 0.61475 0.08125
# Poissons Ratio (z) = 0.15066 0.15061
#
# Static dielectric constant tensor:
#      x y z
#    x 1.685400 0.000000 0.000000 
#    y 0.000000 1.685400 0.000000 
#    z 0.000000 0.000000 1.752070 
# 
# From -- ./inp_files/2851.got.cif
#   From: 2010.05.17/outbox.cif.g08.bks.cpg/sg166_2_cif.got.tgz:2851.got - 2010.05.20 11:04:41.
