data_PCOD9580099
_publ_section_title
;
Structure prediction by ZEFSAII (Michael W. Deem and Ramdas Pophale) SiO2 
 PCOD9580099
Probable space group: P 61
;
_chemical_formula_sum "Si O2"
_cell_formula_units_Z 24
_cell_length_a 9.449858
_cell_length_b 9.449858
_cell_length_c 13.319508
_cell_angle_alpha 90.000000
_cell_angle_beta 90.000000
_cell_angle_gamma 120.000000
_cell_volume 1030.076264
_symmetry_space_group_name_H-M "P 61"
_symmetry_group_IT_number 169
_symmetry_cell_setting 'hexagonal'
loop_
_space_group_symop_operation_xyz
x,y,z
x-y,x,1/6+z
-y,x-y,1/3+z
-x,-y,1/2+z
-x+y,-x,2/3+z
y,-x+y,5/6+z
loop_
_atom_site_type_symbol
_atom_site_label
_atom_site_fract_x
_atom_site_fract_y
_atom_site_fract_z
Si Si1 0.041776 0.801056 0.936490
Si Si2 0.407096 0.351313 0.955657
Si Si3 0.554860 0.553182 0.244074
Si Si4 0.237485 0.591802 0.736737
O O1 0.200588 0.898057 0.863293
O O2 0.892707 0.799232 0.876401
O O3 0.008576 0.615892 0.943042
O O4 0.578458 0.354754 0.940842
O O5 0.414117 0.510890 0.000827
O O6 0.352905 0.338585 0.840324
O O7 0.507974 0.651291 0.168137
O O8 0.660048 0.483919 0.191340
#
# Coordination Sequence:
#
# PCOD9580099 Si02
#       4
#     6   6   6   6
#     4  11  23  46  71 104 144 198 237 301 375 435
#     4  11  22  40  70  99 144 187 232 289 358 432
#     4  11  24  42  72 104 140 190 241 296 355 441
#     4  11  25  42  71 105 142 187 240 296 358 428
#
# _framework density 23.299246
#
# number of rings (size 3 to 8) (size 9 to 14) (size 15 to 20)
#    0.000    1.000    5.000    3.000    7.000    0.000 
#    0.000    5.000    0.000    0.000    0.000    0.000 
#    0.000    0.000    0.000    0.000    0.000    0.000 
#
# Total GULP energy -134272.415375 kJ/mol
# GULP energy per Si atom -5594.683974 kJ/mol
# Density = 2.324622 g / cm^3
# Si number density = 23.299246 Si / 1000 Ang^3
#
#
#
# Elastic Constant Matrix: (Units=GPa)
#
#
# Indices 1 2 3 4 5 6 
#
# 1 78.2474 48.0994 -2.2662 0.0000 0.0000 0.0000
# 2 48.0994 78.2474 -2.2662 0.0000 0.0000 0.0000
# 3 -2.2662 -2.2662 58.8093 0.0000 0.0000 0.0000
# 4 0.0000 0.0000 0.0000 32.4808 0.0000 0.0000
# 5 0.0000 0.0000 0.0000 0.0000 32.4808 0.0000
# 6 0.0000 0.0000 0.0000 0.0000 0.0000 15.0740
#
#
#
# Elastic Compliance Matrix: (Units=1/GPa)
#
#
# Indices 1 2 3 4 5 6 
#
# 1 0.020548 -0.012622 0.000305 0.000000 0.000000 0.000000
# 2 -0.012622 0.020548 0.000305 0.000000 0.000000 0.000000
# 3 0.000305 0.000305 0.017028 0.000000 0.000000 0.000000
# 4 0.000000 0.000000 0.000000 0.030787 0.000000 0.000000
# 5 0.000000 0.000000 0.000000 0.000000 0.030787 0.000000
# 6 0.000000 0.000000 0.000000 0.000000 0.000000 0.066339
#
#
# Mechanical properties :
#
#
# Convention : Reuss Voigt Hill
#
# Bulk Modulus (GPa) = 29.32496 33.60424 31.46460
# Shear Modulus (GPa) = 22.58083 27.45624 25.01854
#
# Velocity S-wave (km/s) = 3.11652 3.43653 3.28043
# Velocity P-wave (km/s) = 5.05607 5.49550 5.28036
#
# Compressibility (1/GPa) = 0.03410064
#
# Stress axis : x y z
#
# Youngs Moduli (GPa) = 48.66722 48.66722 58.72803
#
# Poissons Ratio (x) = 0.61428 -0.01794
# Poissons Ratio (y) = 0.61428 -0.01794
# Poissons Ratio (z) = -0.01486 -0.01486
#
# Static dielectric constant tensor:
#      x y z
#    x 1.865370 0.000000 0.000000 
#    y 0.000000 1.865370 0.000000 
#    z 0.000000 0.000000 1.898580 
# 
# From -- ./inp_files/1301.got.cif
#   From: 2010.05.17/outbox.cif.g08.bks.cpg/sg169_cif.got.tgz:1301.got - 2010.05.20 11:12:54.
