data_PCOD9580555
_publ_section_title
;
Structure prediction by ZEFSAII (Michael W. Deem and Ramdas Pophale) SiO2 
 PCOD9580555
Probable space group: P 62
;
_chemical_formula_sum "Si O2"
_cell_formula_units_Z 36
_cell_length_a 8.015471
_cell_length_b 8.015471
_cell_length_c 26.270580
_cell_angle_alpha 90.000000
_cell_angle_beta 90.000000
_cell_angle_gamma 120.000000
_cell_volume 1461.700472
_symmetry_space_group_name_H-M "P 62"
_symmetry_group_IT_number 171
_symmetry_cell_setting 'hexagonal'
loop_
_space_group_symop_operation_xyz
x,y,z
x-y,x,1/3+z
-y,x-y,2/3+z
-x,-y,z
-x+y,-x,1/3+z
y,-x+y,2/3+z
loop_
_atom_site_type_symbol
_atom_site_label
_atom_site_fract_x
_atom_site_fract_y
_atom_site_fract_z
Si Si1 0.915787 0.641942 0.949400
Si Si2 0.027761 0.311148 0.833227
Si Si3 0.972239 0.283387 0.621703
Si Si4 0.808498 0.363902 0.100669
Si Si5 0.191502 0.555403 0.354261
Si Si6 0.358058 0.084213 0.838864
O O1 0.895507 0.684501 0.890204
O O2 0.718208 0.509006 0.980741
O O3 0.000000 0.500000 0.945529
O O4 0.102055 0.844667 0.967270
O O5 0.198199 0.369429 0.794128
O O6 0.000000 0.500000 0.830543
O O7 0.844667 0.102055 0.820993
O O8 0.000000 0.500000 0.624387
O O9 0.801802 0.171230 0.660803
O O10 0.895507 0.211006 0.564726
O O11 0.790798 0.509006 0.140856
O O12 0.000000 0.500000 0.069286
O O13 0.637950 0.275901 0.060798
O O14 0.000000 0.500000 0.385644
O O15 0.500000 0.000000 0.842734
#
# Coordination Sequence:
#
# PCOD9580555 Si02
#       6
#     6   6   6   6   6   6
#     4  10  20  42  70 105 129 171 247 291 344 430
#     4  10  21  40  75  98 129 182 231 296 355 415
#     4  10  21  40  75  98 129 182 231 296 355 415
#     4  12  27  45  63  99 145 187 231 295 359 435
#     4  12  27  45  63  99 145 187 231 295 359 435
#     4  10  20  42  70 105 129 171 247 291 344 430
#
# _framework density 24.628845999999999
#
# number of rings (size 3 to 8) (size 9 to 14) (size 15 to 20)
#    0.000    1.333    3.333    2.000    0.000    4.667 
#    0.000    5.000    0.000    0.000    0.000    0.000 
#    0.000    0.000    0.000    0.000    0.000    0.000 
#
# Total GULP energy -200889.397605 kJ/mol
# GULP energy per Si atom -5580.261045 kJ/mol
# Density = 2.457279 g / cm^3
# Si number density = 24.628846 Si / 1000 Ang^3
#
#
#
# Elastic Constant Matrix: (Units=GPa)
#
#
# Indices 1 2 3 4 5 6 
#
# 1 84.8711 20.5978 14.3862 0.0000 0.0000 0.0000
# 2 20.5978 84.8711 14.3862 0.0000 0.0000 0.0000
# 3 14.3862 14.3862 65.5192 0.0000 0.0000 0.0000
# 4 0.0000 0.0000 0.0000 21.9161 0.0000 0.0000
# 5 0.0000 0.0000 0.0000 0.0000 21.9161 0.0000
# 6 0.0000 0.0000 0.0000 0.0000 0.0000 32.1367
#
#
#
# Elastic Compliance Matrix: (Units=1/GPa)
#
#
# Indices 1 2 3 4 5 6 
#
# 1 0.012822 -0.002736 -0.002215 0.000000 0.000000 0.000000
# 2 -0.002736 0.012822 -0.002215 0.000000 0.000000 0.000000
# 3 -0.002215 -0.002215 0.016235 0.000000 0.000000 0.000000
# 4 0.000000 0.000000 0.000000 0.045629 0.000000 0.000000
# 5 0.000000 0.000000 0.000000 0.000000 0.045629 0.000000
# 6 0.000000 0.000000 0.000000 0.000000 0.000000 0.031117
#
#
# Mechanical properties :
#
#
# Convention : Reuss Voigt Hill
#
# Bulk Modulus (GPa) = 36.29988 37.11134 36.70561
# Shear Modulus (GPa) = 26.62867 27.58650 27.10759
#
# Velocity S-wave (km/s) = 3.29173 3.35040 3.32119
# Velocity P-wave (km/s) = 5.40537 5.48342 5.44454
#
# Compressibility (1/GPa) = 0.02754830
#
# Stress axis : x y z
#
# Youngs Moduli (GPa) = 77.99049 77.99049 61.59461
#
# Poissons Ratio (x) = 0.21342 0.13640
# Poissons Ratio (y) = 0.21342 0.13640
# Poissons Ratio (z) = 0.17271 0.17271
#
# Static dielectric constant tensor:
#      x y z
#    x 1.989650 0.000000 0.000000 
#    y 0.000000 1.989650 0.000000 
#    z 0.000000 0.000000 1.928760 
# 
# From -- ./inp_files/5811.got.cif
#   From: 2010.05.17/outbox.cif.g08.bks.cpg/sg171_3_cif.got.tgz:5811.got - 2010.05.20 11:16:09.
