data_PCOD9580486
_publ_section_title
;
Structure prediction by ZEFSAII (Michael W. Deem and Ramdas Pophale) SiO2 
 PCOD9580486
Probable space group: P 62
;
_chemical_formula_sum "Si O2"
_cell_formula_units_Z 42
_cell_length_a 11.677517
_cell_length_b 11.677517
_cell_length_c 19.502356
_cell_angle_alpha 90.000000
_cell_angle_beta 90.000000
_cell_angle_gamma 120.000000
_cell_volume 2303.131462
_symmetry_space_group_name_H-M "P 62"
_symmetry_group_IT_number 171
_symmetry_cell_setting 'hexagonal'
loop_
_space_group_symop_operation_xyz
x,y,z
x-y,x,1/3+z
-y,x-y,2/3+z
-x,-y,z
-x+y,-x,1/3+z
y,-x+y,2/3+z
loop_
_atom_site_type_symbol
_atom_site_label
_atom_site_fract_x
_atom_site_fract_y
_atom_site_fract_z
Si Si1 0.631173 0.495122 0.516490
Si Si2 0.354862 0.425628 0.902505
Si Si3 0.674824 0.163379 0.315857
Si Si4 0.160594 0.971650 0.501493
Si Si5 0.560130 0.247188 0.435673
Si Si6 0.874708 0.783255 0.547447
Si Si7 0.920462 0.219506 0.026898
O O1 0.500000 0.500000 0.496962
O O2 0.588339 0.418032 0.589645
O O3 0.638494 0.395835 0.462713
O O4 0.759510 0.640035 0.521233
O O5 0.500000 0.500000 0.933213
O O6 0.249291 0.426692 0.954021
O O7 0.309189 0.279612 0.875153
O O8 0.356288 0.507475 0.834938
O O9 0.648444 0.215515 0.385953
O O10 0.651064 0.017706 0.330465
O O11 0.160737 0.102648 0.529947
O O12 0.198361 0.001141 0.421675
O O13 0.019921 0.842972 0.515096
O O14 0.424730 0.206189 0.393697
O O15 0.876856 0.766714 0.629539
#
# Coordination Sequence:
#
# PCOD9580486 Si02
#       7
#     6   6   6   6   6   6   6
#     4  11  19  36  60  90 123 158 205 258 306 369
#     4  10  20  38  58  83 121 157 207 259 299 372
#     4  11  19  36  64  89 108 159 219 250 299 369
#     4  10  23  37  58  94 120 162 203 258 313 368
#     4  10  20  32  61  90 112 151 213 256 298 362
#     4  11  21  39  61  88 131 158 199 261 315 374
#     4  11  19  37  63  86 119 162 208 252 306 368
#
# _framework density 18.236039999999999
#
# number of rings (size 3 to 8) (size 9 to 14) (size 15 to 20)
#    0.000    1.429    4.286    3.857    0.000    2.286 
#    2.571    1.429    0.000    1.714    0.000    0.000 
#    0.000    0.000    0.000    0.000    0.000    0.000 
#
# Total GULP energy -234358.934514 kJ/mol
# GULP energy per Si atom -5579.974631 kJ/mol
# Density = 1.819453 g / cm^3
# Si number density = 18.236040 Si / 1000 Ang^3
#
#
#
# Elastic Constant Matrix: (Units=GPa)
#
#
# Indices 1 2 3 4 5 6 
#
# 1 94.7009 35.4196 25.4081 0.0000 0.0000 0.0000
# 2 35.4196 94.7009 25.4081 0.0000 0.0000 0.0000
# 3 25.4081 25.4081 81.2696 0.0000 0.0000 0.0000
# 4 0.0000 0.0000 0.0000 28.5559 0.0000 0.0000
# 5 0.0000 0.0000 0.0000 0.0000 28.5559 0.0000
# 6 0.0000 0.0000 0.0000 0.0000 0.0000 29.6407
#
#
#
# Elastic Compliance Matrix: (Units=1/GPa)
#
#
# Indices 1 2 3 4 5 6 
#
# 1 0.012811 -0.004057 -0.002737 0.000000 0.000000 0.000000
# 2 -0.004057 0.012811 -0.002737 0.000000 0.000000 0.000000
# 3 -0.002737 -0.002737 0.014016 0.000000 0.000000 0.000000
# 4 0.000000 0.000000 0.000000 0.035019 0.000000 0.000000
# 5 0.000000 0.000000 0.000000 0.000000 0.035019 0.000000
# 6 0.000000 0.000000 0.000000 0.000000 0.000000 0.033737
#
#
# Mechanical properties :
#
#
# Convention : Reuss Voigt Hill
#
# Bulk Modulus (GPa) = 48.59879 49.23810 48.91845
# Shear Modulus (GPa) = 29.52725 29.64622 29.58674
#
# Velocity S-wave (km/s) = 4.02826 4.03636 4.03231
# Velocity P-wave (km/s) = 6.95295 6.98441 6.96870
#
# Compressibility (1/GPa) = 0.02057664
#
# Stress axis : x y z
#
# Youngs Moduli (GPa) = 78.05572 78.05572 71.34690
#
# Poissons Ratio (x) = 0.31670 0.19527
# Poissons Ratio (y) = 0.31670 0.19527
# Poissons Ratio (z) = 0.21363 0.21363
#
# Static dielectric constant tensor:
#      x y z
#    x 1.644110 0.000000 0.000000 
#    y 0.000000 1.644110 0.000000 
#    z 0.000000 0.000000 1.634620 
# 
# From -- ./inp_files/4992.got.cif
#   From: 2010.05.17/outbox.cif.g08.bks.cpg/sg171_3_cif.got.tgz:4992.got - 2010.05.20 11:16:09.
