data_PCOD9580219
_publ_section_title
;
Structure prediction by ZEFSAII (Michael W. Deem and Ramdas Pophale) SiO2 
 PCOD9580219
Probable space group: P 65
;
_chemical_formula_sum "Si O2"
_cell_formula_units_Z 48
_cell_length_a 17.925906
_cell_length_b 17.925906
_cell_length_c 9.088204
_cell_angle_alpha 90.000000
_cell_angle_beta 90.000000
_cell_angle_gamma 120.000000
_cell_volume 2529.128690
_symmetry_space_group_name_H-M "P 65"
_symmetry_group_IT_number 170
_symmetry_cell_setting 'hexagonal'
loop_
_space_group_symop_operation_xyz
x,y,z
x-y,x,5/6+z
-y,x-y,2/3+z
-x,-y,1/2+z
-x+y,-x,1/3+z
y,-x+y,1/6+z
loop_
_atom_site_type_symbol
_atom_site_label
_atom_site_fract_x
_atom_site_fract_y
_atom_site_fract_z
Si Si1 0.687618 0.681776 0.164270
Si Si2 0.793421 0.437431 0.122601
Si Si3 0.515093 0.927464 0.509767
Si Si4 0.674062 0.536024 0.648596
Si Si5 0.251141 0.832758 0.334411
Si Si6 0.606821 0.620465 0.859989
Si Si7 0.602583 0.387568 0.113976
Si Si8 0.793980 0.159239 0.501441
O O1 0.611082 0.598708 0.247726
O O2 0.696171 0.763541 0.255095
O O3 0.768204 0.663546 0.150581
O O4 0.652536 0.677376 0.000962
O O5 0.822888 0.389618 0.007418
O O6 0.690254 0.386626 0.118373
O O7 0.822381 0.420218 0.282097
O O8 0.815661 0.537479 0.110669
O O9 0.549582 0.905783 0.655818
O O10 0.456171 0.966668 0.557942
O O11 0.455533 0.847515 0.401781
O O12 0.777151 0.589710 0.629903
O O13 0.657051 0.577745 0.789448
O O14 0.323124 0.922369 0.397380
O O15 0.295145 0.773914 0.311757
O O16 0.218249 0.845806 0.178739
#
# Coordination Sequence:
#
# PCOD9580219 Si02
#       8
#     6   6   6   6   6   6   6   6
#     4  12  24  43  66  93 125 165 218 270 330 394
#     4  11  21  35  57  86 123 169 219 271 314 361
#     4  11  20  41  57  86 125 170 216 255 314 374
#     4  12  23  37  60  88 125 173 213 268 322 379
#     4  10  23  41  58  88 125 170 216 266 321 374
#     4  11  25  37  63  91 126 165 216 270 318 374
#     4  10  20  35  54  81 123 168 220 268 306 364
#     4  11  24  43  65  89 126 170 212 268 327 400
#
# _framework density 18.978867999999999
#
# number of rings (size 3 to 8) (size 9 to 14) (size 15 to 20)
#    0.000    1.000    2.500    5.250    1.750    5.000 
#    0.000    0.000    0.000    0.000    0.000    1.750 
#    0.000    0.000    0.000    0.000    0.000    0.000 
#
# Total GULP energy -267659.968084 kJ/mol
# GULP energy per Si atom -5576.249335 kJ/mol
# Density = 1.893567 g / cm^3
# Si number density = 18.978868 Si / 1000 Ang^3
#
#
#
# Elastic Constant Matrix: (Units=GPa)
#
#
# Indices 1 2 3 4 5 6 
#
# 1 62.9827 28.7252 17.4197 0.0000 0.0000 0.0000
# 2 28.7252 62.9827 17.4197 0.0000 0.0000 0.0000
# 3 17.4197 17.4197 46.8145 0.0000 0.0000 0.0000
# 4 0.0000 0.0000 0.0000 21.9493 0.0000 0.0000
# 5 0.0000 0.0000 0.0000 0.0000 21.9493 0.0000
# 6 0.0000 0.0000 0.0000 0.0000 0.0000 17.1287
#
#
#
# Elastic Compliance Matrix: (Units=1/GPa)
#
#
# Indices 1 2 3 4 5 6 
#
# 1 0.020945 -0.008246 -0.004725 0.000000 0.000000 0.000000
# 2 -0.008246 0.020945 -0.004725 0.000000 0.000000 0.000000
# 3 -0.004725 -0.004725 0.024878 0.000000 0.000000 0.000000
# 4 0.000000 0.000000 0.000000 0.045560 0.000000 0.000000
# 5 0.000000 0.000000 0.000000 0.000000 0.045560 0.000000
# 6 0.000000 0.000000 0.000000 0.000000 0.000000 0.058381
#
#
# Mechanical properties :
#
#
# Convention : Reuss Voigt Hill
#
# Bulk Modulus (GPa) = 31.87299 33.32325 32.59812
# Shear Modulus (GPa) = 19.07527 19.48648 19.28087
#
# Velocity S-wave (km/s) = 3.17374 3.20776 3.19080
# Velocity P-wave (km/s) = 5.50096 5.59606 5.54871
#
# Compressibility (1/GPa) = 0.03137452
#
# Stress axis : x y z
#
# Youngs Moduli (GPa) = 47.74401 47.74401 40.19681
#
# Poissons Ratio (x) = 0.39368 0.18995
# Poissons Ratio (y) = 0.39368 0.18995
# Poissons Ratio (z) = 0.22561 0.22561
#
# Static dielectric constant tensor:
#      x y z
#    x 1.724880 0.000000 0.000000 
#    y 0.000000 1.724880 0.000000 
#    z 0.000000 0.000000 1.718650 
# 
# From -- ./inp_files/755.got.cif
#   From: 2010.05.17/outbox.cif.g08.bks.cpg/sg170_cif.got.tgz:755.got - 2010.05.20 11:14:30.
