data_PCOD9580510
_publ_section_title
;
Structure prediction by ZEFSAII (Michael W. Deem and Ramdas Pophale) SiO2 
 PCOD9580510
Probable space group: P 62
;
_chemical_formula_sum "Si O2"
_cell_formula_units_Z 42
_cell_length_a 13.186695
_cell_length_b 13.186695
_cell_length_c 15.100803
_cell_angle_alpha 90.000000
_cell_angle_beta 90.000000
_cell_angle_gamma 120.000000
_cell_volume 2274.063546
_symmetry_space_group_name_H-M "P 62"
_symmetry_group_IT_number 171
_symmetry_cell_setting 'hexagonal'
loop_
_space_group_symop_operation_xyz
x,y,z
x-y,x,1/3+z
-y,x-y,2/3+z
-x,-y,z
-x+y,-x,1/3+z
y,-x+y,2/3+z
loop_
_atom_site_type_symbol
_atom_site_label
_atom_site_fract_x
_atom_site_fract_y
_atom_site_fract_z
Si Si1 0.500000 0.500000 0.837540
Si Si2 0.000000 0.000000 0.562863
Si Si3 0.804189 0.258146 0.104251
Si Si4 0.501309 0.718069 0.926232
Si Si5 0.806134 0.188346 0.905407
Si Si6 0.609518 0.322481 0.120990
Si Si7 0.795988 0.032868 0.158016
Si Si8 0.945764 0.195825 0.627396
O O1 0.616033 0.535636 0.780953
O O2 0.512456 0.607471 0.895494
O O3 0.957044 0.079627 0.614621
O O4 0.113030 0.088424 0.506810
O O5 0.689557 0.262792 0.132343
O O6 0.819069 0.163381 0.160426
O O7 0.784758 0.219214 0.002837
O O8 0.441001 0.753169 0.846020
O O9 0.632515 0.824646 0.942842
O O10 0.421183 0.679889 0.016159
O O11 0.749394 0.234527 0.835230
O O12 0.945186 0.245687 0.892950
O O13 0.754248 0.048833 0.899953
O O14 0.746622 0.981371 0.061586
#
# Coordination Sequence:
#
# PCOD9580510 Si02
#       8
#     3   3   6   6   6   6   6   6
#     4  10  24  42  62  88 126 162 206 254 322 392
#     4  10  20  36  60  88 124 164 202 262 314 374
#     4  10  22  40  61  88 122 161 211 256 308 375
#     4  11  23  42  64  92 128 167 209 261 317 375
#     4  10  21  38  60  92 117 162 209 255 312 367
#     4  11  22  41  62  90 128 162 210 264 311 374
#     4  10  20  37  59  88 122 159 210 254 312 370
#     4  10  21  37  61  89 123 160 208 260 307 378
#
# _framework density 18.469141
#
# number of rings (size 3 to 8) (size 9 to 14) (size 15 to 20)
#    0.000    1.714    2.857    1.286    0.000    3.429 
#    2.571    0.000    0.000    0.000    0.000    0.000 
#    0.000    0.000    0.000    0.000    0.000    0.000 
#
# Total GULP energy -234064.105754 kJ/mol
# GULP energy per Si atom -5572.954899 kJ/mol
# Density = 1.842710 g / cm^3
# Si number density = 18.469141 Si / 1000 Ang^3
#
#
#
# Elastic Constant Matrix: (Units=GPa)
#
#
# Indices 1 2 3 4 5 6 
#
# 1 97.2961 44.0953 16.4730 0.0000 0.0000 0.0000
# 2 44.0953 97.2961 16.4730 0.0000 0.0000 0.0000
# 3 16.4730 16.4730 46.7622 0.0000 0.0000 0.0000
# 4 0.0000 0.0000 0.0000 27.0932 0.0000 0.0000
# 5 0.0000 0.0000 0.0000 0.0000 27.0932 0.0000
# 6 0.0000 0.0000 0.0000 0.0000 0.0000 26.6004
#
#
#
# Elastic Compliance Matrix: (Units=1/GPa)
#
#
# Indices 1 2 3 4 5 6 
#
# 1 0.013251 -0.005546 -0.002714 0.000000 0.000000 0.000000
# 2 -0.005546 0.013251 -0.002714 0.000000 0.000000 0.000000
# 3 -0.002714 -0.002714 0.023297 0.000000 0.000000 0.000000
# 4 0.000000 0.000000 0.000000 0.036910 0.000000 0.000000
# 5 0.000000 0.000000 0.000000 0.000000 0.036910 0.000000
# 6 0.000000 0.000000 0.000000 0.000000 0.000000 0.037593
#
#
# Mechanical properties :
#
#
# Convention : Reuss Voigt Hill
#
# Bulk Modulus (GPa) = 35.90650 43.93745 39.92197
# Shear Modulus (GPa) = 25.98163 27.11156 26.54660
#
# Velocity S-wave (km/s) = 3.75475 3.83553 3.79535
# Velocity P-wave (km/s) = 6.18717 6.59214 6.39286
#
# Compressibility (1/GPa) = 0.02785011
#
# Stress axis : x y z
#
# Youngs Moduli (GPa) = 75.46682 75.46682 42.92379
#
# Poissons Ratio (x) = 0.41853 0.11651
# Poissons Ratio (y) = 0.41853 0.11651
# Poissons Ratio (z) = 0.20484 0.20484
#
# Static dielectric constant tensor:
#      x y z
#    x 1.635540 0.000000 0.000000 
#    y 0.000000 1.635540 0.000000 
#    z 0.000000 0.000000 1.643860 
# 
# From -- ./inp_files/2502.got.cif
#   From: 2010.05.17/outbox.cif.g08.bks.cpg/sg171_2_cif.got.tgz:2502.got - 2010.05.20 11:16:09.
