data_PCOD9580283
_publ_section_title
;
Structure prediction by ZEFSAII (Michael W. Deem and Ramdas Pophale) SiO2 
 PCOD9580283
Probable space group: P 65
;
_chemical_formula_sum "Si O2"
_cell_formula_units_Z 48
_cell_length_a 12.004952
_cell_length_b 12.004952
_cell_length_c 17.231575
_cell_angle_alpha 90.000000
_cell_angle_beta 90.000000
_cell_angle_gamma 120.000000
_cell_volume 2150.683297
_symmetry_space_group_name_H-M "P 65"
_symmetry_group_IT_number 170
_symmetry_cell_setting 'hexagonal'
loop_
_space_group_symop_operation_xyz
x,y,z
x-y,x,5/6+z
-y,x-y,2/3+z
-x,-y,1/2+z
-x+y,-x,1/3+z
y,-x+y,1/6+z
loop_
_atom_site_type_symbol
_atom_site_label
_atom_site_fract_x
_atom_site_fract_y
_atom_site_fract_z
Si Si1 0.435628 0.323320 0.041960
Si Si2 0.901520 0.307675 0.001101
Si Si3 0.203493 0.008059 0.652375
Si Si4 0.580928 0.894689 0.259558
Si Si5 0.272802 0.266838 0.320782
Si Si6 0.361301 0.032307 0.045788
Si Si7 0.096763 0.081334 0.866236
Si Si8 0.070300 0.450054 0.560492
O O1 0.342722 0.324831 0.109201
O O2 0.572084 0.447470 0.060273
O O3 0.432980 0.187943 0.046925
O O4 0.384230 0.347677 0.961106
O O5 0.798787 0.159791 0.985203
O O6 0.871178 0.423871 0.003852
O O7 0.948882 0.322009 0.089297
O O8 0.290746 0.037226 0.576504
O O9 0.069428 0.879134 0.631204
O O10 0.290740 0.996239 0.717569
O O11 0.148441 0.099046 0.680005
O O12 0.580040 0.764487 0.239876
O O13 0.595016 0.942461 0.347628
O O14 0.215923 0.990979 0.020604
O O15 0.421676 0.981059 0.981734
O O16 0.004017 0.079103 0.794765
#
# Coordination Sequence:
#
# PCOD9580283 Si02
#       8
#     6   6   6   6   6   6   6   6
#     4  11  26  45  69 103 147 199 244 299 370 450
#     4  10  24  44  67  97 143 186 230 298 357 442
#     4  11  22  37  68 105 141 176 225 298 359 437
#     4  11  26  48  70 102 142 192 240 301 365 439
#     4  10  22  39  67 103 135 177 230 289 366 417
#     4  12  25  43  73 107 143 191 247 306 366 455
#     4  12  25  39  67 111 151 189 233 311 389 444
#     4  11  26  47  71  98 140 188 245 300 366 432
#
# _framework density 22.318489
#
# number of rings (size 3 to 8) (size 9 to 14) (size 15 to 20)
#    0.000    1.000    2.500    3.000    7.000    1.000 
#    2.250    2.500    0.000    0.000    0.000    0.000 
#    0.000    0.000    0.000    0.000    0.000    0.000 
#
# Total GULP energy -267330.986361 kJ/mol
# GULP energy per Si atom -5569.395549 kJ/mol
# Density = 2.226769 g / cm^3
# Si number density = 22.318489 Si / 1000 Ang^3
#
#
#
# Elastic Constant Matrix: (Units=GPa)
#
#
# Indices 1 2 3 4 5 6 
#
# 1 63.2772 21.4734 2.8648 0.0000 0.0000 0.0000
# 2 21.4734 63.2772 2.8648 0.0000 0.0000 0.0000
# 3 2.8648 2.8648 82.1200 0.0000 0.0000 0.0000
# 4 0.0000 0.0000 0.0000 27.7213 0.0000 0.0000
# 5 0.0000 0.0000 0.0000 0.0000 27.7213 0.0000
# 6 0.0000 0.0000 0.0000 0.0000 0.0000 20.9019
#
#
#
# Elastic Compliance Matrix: (Units=1/GPa)
#
#
# Indices 1 2 3 4 5 6 
#
# 1 0.017874 -0.006047 -0.000413 0.000000 0.000000 0.000000
# 2 -0.006047 0.017874 -0.000413 0.000000 0.000000 0.000000
# 3 -0.000413 -0.000413 0.012206 0.000000 0.000000 0.000000
# 4 0.000000 0.000000 0.000000 0.036073 0.000000 0.000000
# 5 0.000000 0.000000 0.000000 0.000000 0.036073 0.000000
# 6 0.000000 0.000000 0.000000 0.000000 0.000000 0.047843
#
#
# Mechanical properties :
#
#
# Convention : Reuss Voigt Hill
#
# Bulk Modulus (GPa) = 29.23112 29.23117 29.23114
# Shear Modulus (GPa) = 25.89443 27.36698 26.63071
#
# Velocity S-wave (km/s) = 3.40990 3.50552 3.45804
# Velocity P-wave (km/s) = 5.35060 5.43236 5.39164
#
# Compressibility (1/GPa) = 0.03421012
#
# Stress axis : x y z
#
# Youngs Moduli (GPa) = 55.94643 55.94643 81.92637
#
# Poissons Ratio (x) = 0.33831 0.03380
# Poissons Ratio (y) = 0.33831 0.03380
# Poissons Ratio (z) = 0.02308 0.02308
#
# Static dielectric constant tensor:
#      x y z
#    x 1.902970 0.000000 0.000000 
#    y 0.000000 1.902970 0.000000 
#    z 0.000000 0.000000 1.913380 
# 
# From -- ./inp_files/1452.got.cif
#   From: 2010.05.17/outbox.cif.g08.bks.cpg/sg170_cif.got.tgz:1452.got - 2010.05.20 11:14:30.
