data_PCOD9580367
_publ_section_title
;
Structure prediction by ZEFSAII (Michael W. Deem and Ramdas Pophale) SiO2 
 PCOD9580367
Probable space group: P 65
;
_chemical_formula_sum "Si O2"
_cell_formula_units_Z 42
_cell_length_a 14.884223
_cell_length_b 14.884223
_cell_length_c 12.590641
_cell_angle_alpha 90.000000
_cell_angle_beta 90.000000
_cell_angle_gamma 120.000000
_cell_volume 2415.632194
_symmetry_space_group_name_H-M "P 65"
_symmetry_group_IT_number 170
_symmetry_cell_setting 'hexagonal'
loop_
_space_group_symop_operation_xyz
x,y,z
x-y,x,5/6+z
-y,x-y,2/3+z
-x,-y,1/2+z
-x+y,-x,1/3+z
y,-x+y,1/6+z
loop_
_atom_site_type_symbol
_atom_site_label
_atom_site_fract_x
_atom_site_fract_y
_atom_site_fract_z
Si Si1 0.599638 0.821411 0.155450
Si Si2 0.754296 0.380130 0.040381
Si Si3 0.745730 0.286436 0.817639
Si Si4 0.587118 0.050058 0.777297
Si Si5 0.942206 0.389858 0.149119
Si Si6 0.355109 0.007742 0.818009
Si Si7 0.962182 0.389214 0.722459
O O1 0.479998 0.735211 0.178754
O O2 0.647822 0.748619 0.126634
O O3 0.643269 0.895537 0.258769
O O4 0.603733 0.896920 0.061177
O O5 0.773507 0.331273 0.935794
O O6 0.649049 0.294883 0.092065
O O7 0.846956 0.409432 0.122377
O O8 0.653609 0.169160 0.810942
O O9 0.848004 0.305031 0.758832
O O10 0.605267 0.985397 0.869044
O O11 0.463454 0.013214 0.780435
O O12 0.618344 0.033905 0.659853
O O13 0.029303 0.499226 0.197800
O O14 0.365029 0.013503 0.945921
#
# Coordination Sequence:
#
# PCOD9580367 Si02
#       7
#     6   6   6   6   6   6   6
#     4  12  23  40  60  85 121 160 204 261 307 367
#     4  12  21  33  54  89 113 165 208 242 297 361
#     4  12  24  35  60  84 126 175 205 243 314 365
#     4  11  22  39  54  89 121 165 206 252 298 375
#     4  11  22  37  56  82 126 154 205 253 291 364
#     4  11  24  38  61  86 121 159 210 257 311 363
#     4  11  22  38  55  85 124 160 206 252 298 375
#
# _framework density 17.386752999999999
#
# number of rings (size 3 to 8) (size 9 to 14) (size 15 to 20)
#    0.000    0.571    8.571    1.714    2.000    1.143 
#    0.000    0.000    0.000    0.000    0.000    2.000 
#    0.000    0.000    0.000    0.000    0.000    0.000 
#
# Total GULP energy -234325.907095 kJ/mol
# GULP energy per Si atom -5579.188264 kJ/mol
# Density = 1.734718 g / cm^3
# Si number density = 17.386753 Si / 1000 Ang^3
#
#
#
# Elastic Constant Matrix: (Units=GPa)
#
#
# Indices 1 2 3 4 5 6 
#
# 1 62.9664 19.5124 24.8151 0.0000 0.0000 0.0000
# 2 19.5124 62.9664 24.8151 0.0000 0.0000 0.0000
# 3 24.8151 24.8151 105.5464 0.0000 0.0000 0.0000
# 4 0.0000 0.0000 0.0000 25.4767 0.0000 0.0000
# 5 0.0000 0.0000 0.0000 0.0000 25.4767 0.0000
# 6 0.0000 0.0000 0.0000 0.0000 0.0000 21.7270
#
#
#
# Elastic Compliance Matrix: (Units=1/GPa)
#
#
# Indices 1 2 3 4 5 6 
#
# 1 0.018568 -0.004445 -0.003320 0.000000 0.000000 0.000000
# 2 -0.004445 0.018568 -0.003320 0.000000 0.000000 0.000000
# 3 -0.003320 -0.003320 0.011036 0.000000 0.000000 0.000000
# 4 0.000000 0.000000 0.000000 0.039252 0.000000 0.000000
# 5 0.000000 0.000000 0.000000 0.000000 0.039252 0.000000
# 6 0.000000 0.000000 0.000000 0.000000 0.000000 0.046026
#
#
# Mechanical properties :
#
#
# Convention : Reuss Voigt Hill
#
# Bulk Modulus (GPa) = 38.46282 41.08491 39.77387
# Shear Modulus (GPa) = 24.56545 25.35851 24.96198
#
# Velocity S-wave (km/s) = 3.76291 3.82317 3.79316
# Velocity P-wave (km/s) = 6.40697 6.57040 6.48920
#
# Compressibility (1/GPa) = 0.02599913
#
# Stress axis : x y z
#
# Youngs Moduli (GPa) = 53.85738 53.85738 90.61443
#
# Poissons Ratio (x) = 0.23941 0.30087
# Poissons Ratio (y) = 0.23941 0.30087
# Poissons Ratio (z) = 0.17882 0.17882
#
# Static dielectric constant tensor:
#      x y z
#    x 1.586200 0.000000 0.000000 
#    y 0.000000 1.586200 0.000000 
#    z 0.000000 0.000000 1.674870 
# 
# From -- ./inp_files/965.got.cif
#   From: 2010.05.17/outbox.cif.g08.bks.cpg/sg170_cif.got.tgz:965.got - 2010.05.20 11:14:30.
