data_PCOD9580634
_publ_section_title
;
Structure prediction by ZEFSAII (Michael W. Deem and Ramdas Pophale) SiO2 
 PCOD9580634
Probable space group: P 62
;
_chemical_formula_sum "Si O2"
_cell_formula_units_Z 45
_cell_length_a 14.053346
_cell_length_b 14.053346
_cell_length_c 11.536773
_cell_angle_alpha 90.000000
_cell_angle_beta 90.000000
_cell_angle_gamma 120.000000
_cell_volume 1973.215222
_symmetry_space_group_name_H-M "P 62"
_symmetry_group_IT_number 171
_symmetry_cell_setting 'hexagonal'
loop_
_space_group_symop_operation_xyz
x,y,z
x-y,x,1/3+z
-y,x-y,2/3+z
-x,-y,z
-x+y,-x,1/3+z
y,-x+y,2/3+z
loop_
_atom_site_type_symbol
_atom_site_label
_atom_site_fract_x
_atom_site_fract_y
_atom_site_fract_z
Si Si1 0.673169 0.516359 0.752050
Si Si2 0.738909 0.661924 0.156159
Si Si3 0.699934 0.806361 0.325022
Si Si4 0.003897 0.857776 0.830978
Si Si5 0.411687 0.593824 0.097763
Si Si6 0.798339 0.831455 0.957736
Si Si7 0.500000 0.500000 0.934316
Si Si8 0.358347 0.736876 0.241597
O O1 0.768582 0.619054 0.688509
O O2 0.603279 0.534443 0.850132
O O3 0.592967 0.434652 0.652733
O O4 0.737948 0.458998 0.809955
O O5 0.675901 0.711135 0.232674
O O6 0.668306 0.529869 0.146109
O O7 0.856051 0.706801 0.225117
O O8 0.761242 0.718226 0.028453
O O9 0.736544 0.775642 0.444827
O O10 0.803061 0.914485 0.270872
O O11 0.894931 0.857550 0.867963
O O12 0.080897 0.933115 0.728215
O O13 0.430082 0.684593 0.192333
O O14 0.507503 0.591525 0.024444
O O15 0.347197 0.617699 0.998472
#
# Coordination Sequence:
#
# PCOD9580634 Si02
#       8
#     6   6   6   6   6   6   3   6
#     4  10  22  45  65 100 130 181 220 280 351 408
#     4  10  23  39  64  96 132 172 229 286 333 418
#     4  10  23  40  61  93 135 170 223 275 333 406
#     4  10  22  39  56  91 130 176 214 275 331 409
#     4  10  22  44  67 103 125 180 226 287 347 415
#     4  10  22  38  58  92 129 182 215 276 344 406
#     4  10  24  40  72 100 130 166 236 272 338 426
#     4   9  22  44  69  91 139 172 221 286 350 411
#
# _framework density 22.805420999999999
#
# number of rings (size 3 to 8) (size 9 to 14) (size 15 to 20)
#    0.000    2.133    0.000    0.800    5.600   14.400 
#   16.800    0.000    0.000    0.000    0.000    0.000 
#    0.000    0.000    0.000    0.000    0.000    0.000 
#
# Total GULP energy -250941.040561 kJ/mol
# GULP energy per Si atom -5576.467568 kJ/mol
# Density = 2.275351 g / cm^3
# Si number density = 22.805421 Si / 1000 Ang^3
#
#
#
# Elastic Constant Matrix: (Units=GPa)
#
#
# Indices 1 2 3 4 5 6 
#
# 1 55.7265 12.8174 39.3180 0.0000 0.0000 0.0000
# 2 12.8174 55.7265 39.3180 0.0000 0.0000 0.0000
# 3 39.3180 39.3180 87.4073 0.0000 0.0000 0.0000
# 4 0.0000 0.0000 0.0000 36.3792 0.0000 0.0000
# 5 0.0000 0.0000 0.0000 0.0000 36.3792 0.0000
# 6 0.0000 0.0000 0.0000 0.0000 0.0000 21.4546
#
#
#
# Elastic Compliance Matrix: (Units=1/GPa)
#
#
# Indices 1 2 3 4 5 6 
#
# 1 0.026726 0.003421 -0.013561 0.000000 0.000000 0.000000
# 2 0.003421 0.026726 -0.013561 0.000000 0.000000 0.000000
# 3 -0.013561 -0.013561 0.023641 0.000000 0.000000 0.000000
# 4 0.000000 0.000000 0.000000 0.027488 0.000000 0.000000
# 5 0.000000 0.000000 0.000000 0.000000 0.027488 0.000000
# 6 0.000000 0.000000 0.000000 0.000000 0.000000 0.046610
#
#
# Mechanical properties :
#
#
# Convention : Reuss Voigt Hill
#
# Bulk Modulus (GPa) = 33.68041 42.41857 38.04949
# Shear Modulus (GPa) = 21.18853 26.00306 23.59580
#
# Velocity S-wave (km/s) = 3.05142 3.38037 3.22010
# Velocity P-wave (km/s) = 5.21685 5.82035 5.52684
#
# Compressibility (1/GPa) = 0.02969085
#
# Stress axis : x y z
#
# Youngs Moduli (GPa) = 37.41711 37.41711 42.30026
#
# Poissons Ratio (x) = -0.12799 0.57362
# Poissons Ratio (y) = -0.12799 0.57362
# Poissons Ratio (z) = 0.50740 0.50740
#
# Static dielectric constant tensor:
#      x y z
#    x 1.905780 0.000000 0.000000 
#    y 0.000000 1.905780 0.000000 
#    z 0.000000 0.000000 1.858730 
# 
# From -- ./inp_files/4724.got.cif
#   From: 2010.05.17/outbox.cif.g08.bks.cpg/sg171_3_cif.got.tgz:4724.got - 2010.05.20 11:16:09.
