data_PCOD9580190
_publ_section_title
;
Structure prediction by ZEFSAII (Michael W. Deem and Ramdas Pophale) SiO2 
 PCOD9580190
Probable space group: P 65
;
_chemical_formula_sum "Si O2"
_cell_formula_units_Z 48
_cell_length_a 12.380597
_cell_length_b 12.380597
_cell_length_c 18.273774
_cell_angle_alpha 90.000000
_cell_angle_beta 90.000000
_cell_angle_gamma 120.000000
_cell_volume 2425.727744
_symmetry_space_group_name_H-M "P 65"
_symmetry_group_IT_number 170
_symmetry_cell_setting 'hexagonal'
loop_
_space_group_symop_operation_xyz
x,y,z
x-y,x,5/6+z
-y,x-y,2/3+z
-x,-y,1/2+z
-x+y,-x,1/3+z
y,-x+y,1/6+z
loop_
_atom_site_type_symbol
_atom_site_label
_atom_site_fract_x
_atom_site_fract_y
_atom_site_fract_z
Si Si1 0.831509 0.414964 0.559150
Si Si2 0.118232 0.491760 0.903378
Si Si3 0.503425 0.642794 0.342765
Si Si4 0.113190 0.739053 0.709593
Si Si5 0.523976 0.748308 0.181628
Si Si6 0.483812 0.118345 0.051534
Si Si7 0.856766 0.343573 0.944660
Si Si8 0.160990 0.409651 0.239702
O O1 0.905584 0.475251 0.485916
O O2 0.739469 0.270877 0.543886
O O3 0.896453 0.411867 0.633246
O O4 0.758013 0.488631 0.572250
O O5 0.183884 0.626151 0.863416
O O6 0.224420 0.452656 0.897396
O O7 0.974502 0.387497 0.890792
O O8 0.374787 0.511056 0.352160
O O9 0.543689 0.697778 0.259696
O O10 0.601258 0.625484 0.393304
O O11 0.155504 0.783712 0.792587
O O12 0.192878 0.841836 0.650744
O O13 0.967194 0.681982 0.700114
O O14 0.450889 0.625424 0.132180
O O15 0.620734 0.161541 0.086169
O O16 0.847670 0.275180 0.022315
#
# Coordination Sequence:
#
# PCOD9580190 Si02
#       8
#     6   6   6   6   6   6   6   6
#     4  10  20  35  51  80 118 148 185 235 291 355
#     4  11  22  33  56  86 117 157 197 235 306 366
#     4  10  19  34  55  78 123 151 181 240 293 357
#     4  11  21  36  58  84 114 154 200 239 296 368
#     4  11  21  35  53  86 117 157 194 237 299 361
#     4  10  20  36  53  83 119 157 182 234 301 363
#     4  11  21  35  56  82 124 149 191 246 295 365
#     4  10  22  38  58  83 116 153 194 244 299 359
#
# _framework density 19.787875
#
# number of rings (size 3 to 8) (size 9 to 14) (size 15 to 20)
#    0.000    1.500    5.000    1.500    5.250    2.000 
#    0.000    0.000    0.000    0.000    3.250    0.000 
#    0.000    0.000    0.000    0.000    0.000    0.000 
#
# Total GULP energy -267382.805812 kJ/mol
# GULP energy per Si atom -5570.475121 kJ/mol
# Density = 1.974284 g / cm^3
# Si number density = 19.787875 Si / 1000 Ang^3
#
#
#
# Elastic Constant Matrix: (Units=GPa)
#
#
# Indices 1 2 3 4 5 6 
#
# 1 55.4896 21.0299 12.6224 0.0000 0.0000 0.0000
# 2 21.0299 55.4896 12.6224 0.0000 0.0000 0.0000
# 3 12.6224 12.6224 73.8873 0.0000 0.0000 0.0000
# 4 0.0000 0.0000 0.0000 17.2338 0.0000 0.0000
# 5 0.0000 0.0000 0.0000 0.0000 17.2338 0.0000
# 6 0.0000 0.0000 0.0000 0.0000 0.0000 17.2298
#
#
#
# Elastic Compliance Matrix: (Units=1/GPa)
#
#
# Indices 1 2 3 4 5 6 
#
# 1 0.021434 -0.007585 -0.002366 0.000000 0.000000 0.000000
# 2 -0.007585 0.021434 -0.002366 0.000000 0.000000 0.000000
# 3 -0.002366 -0.002366 0.014342 0.000000 0.000000 0.000000
# 4 0.000000 0.000000 0.000000 0.058026 0.000000 0.000000
# 5 0.000000 0.000000 0.000000 0.000000 0.058026 0.000000
# 6 0.000000 0.000000 0.000000 0.000000 0.000000 0.058039
#
#
# Mechanical properties :
#
#
# Convention : Reuss Voigt Hill
#
# Bulk Modulus (GPa) = 30.69640 30.82401 30.76020
# Shear Modulus (GPa) = 18.74106 19.57893 19.16000
#
# Velocity S-wave (km/s) = 3.08084 3.14895 3.11508
# Velocity P-wave (km/s) = 5.31054 5.36956 5.34013
#
# Compressibility (1/GPa) = 0.03257711
#
# Stress axis : x y z
#
# Youngs Moduli (GPa) = 46.65426 46.65426 69.72300
#
# Poissons Ratio (x) = 0.35388 0.16496
# Poissons Ratio (y) = 0.35388 0.16496
# Poissons Ratio (z) = 0.11038 0.11038
#
# Static dielectric constant tensor:
#      x y z
#    x 1.730130 0.000000 0.000000 
#    y 0.000000 1.730130 0.000000 
#    z 0.000000 0.000000 1.912380 
# 
# From -- ./inp_files/1589.got.cif
#   From: 2010.05.17/outbox.cif.g08.bks.cpg/sg170_cif.got.tgz:1589.got - 2010.05.20 11:14:30.
