data_PCOD9580303
_publ_section_title
;
Structure prediction by ZEFSAII (Michael W. Deem and Ramdas Pophale) SiO2 
 PCOD9580303
Probable space group: P 65
;
_chemical_formula_sum "Si O2"
_cell_formula_units_Z 48
_cell_length_a 11.259371
_cell_length_b 11.259371
_cell_length_c 17.410931
_cell_angle_alpha 90.000000
_cell_angle_beta 90.000000
_cell_angle_gamma 120.000000
_cell_volume 1911.528974
_symmetry_space_group_name_H-M "P 65"
_symmetry_group_IT_number 170
_symmetry_cell_setting 'hexagonal'
loop_
_space_group_symop_operation_xyz
x,y,z
x-y,x,5/6+z
-y,x-y,2/3+z
-x,-y,1/2+z
-x+y,-x,1/3+z
y,-x+y,1/6+z
loop_
_atom_site_type_symbol
_atom_site_label
_atom_site_fract_x
_atom_site_fract_y
_atom_site_fract_z
Si Si1 0.405981 0.364263 0.223650
Si Si2 0.326674 0.913048 0.135121
Si Si3 0.645108 0.443815 0.531027
Si Si4 0.308319 0.169358 0.735608
Si Si5 0.019421 0.897739 0.573171
Si Si6 0.385650 0.977663 0.778330
Si Si7 0.820114 0.424826 0.155738
Si Si8 0.157973 0.225889 0.859736
O O1 0.473733 0.268934 0.233619
O O2 0.242101 0.260983 0.215758
O O3 0.505213 0.468541 0.156052
O O4 0.416853 0.467925 0.290346
O O5 0.375911 0.836265 0.078971
O O6 0.198147 0.816424 0.188155
O O7 0.451934 0.046449 0.171487
O O8 0.246373 0.972143 0.085871
O O9 0.526896 0.354420 0.591398
O O10 0.627007 0.329005 0.470646
O O11 0.309087 0.267032 0.669559
O O12 0.442617 0.269581 0.784951
O O13 0.182252 0.149618 0.787959
O O14 0.349238 0.055732 0.712424
O O15 0.014640 0.901666 0.671045
O O16 0.870275 0.877741 0.557593
#
# Coordination Sequence:
#
# PCOD9580303 Si02
#       8
#     6   6   6   6   6   6   6   6
#     4  11  24  48  70 105 148 199 258 323 392 476
#     4  11  25  40  72 104 147 195 259 317 380 487
#     4  12  25  42  70 104 142 192 251 316 392 470
#     4  10  22  44  68  99 141 183 245 301 374 451
#     4  12  25  46  74 112 153 204 269 326 398 478
#     4  11  25  43  73 102 144 193 247 312 391 474
#     4  10  25  44  66 100 145 187 242 313 386 449
#     4  11  21  41  69 106 140 193 257 318 373 461
#
# _framework density 25.110790000000001
#
# number of rings (size 3 to 8) (size 9 to 14) (size 15 to 20)
#    0.000    1.000    3.750    2.250    7.000    3.000 
#    2.250    0.000    0.000    0.000    0.000    0.000 
#    0.000    0.000    0.000    0.000    0.000    0.000 
#
# Total GULP energy -267329.935563 kJ/mol
# GULP energy per Si atom -5569.373658 kJ/mol
# Density = 2.505364 g / cm^3
# Si number density = 25.110790 Si / 1000 Ang^3
#
#
#
# Elastic Constant Matrix: (Units=GPa)
#
#
# Indices 1 2 3 4 5 6 
#
# 1 98.3091 29.2152 8.7494 0.0000 0.0000 0.0000
# 2 29.2152 98.3091 8.7494 0.0000 0.0000 0.0000
# 3 8.7494 8.7494 28.1363 0.0000 0.0000 0.0000
# 4 0.0000 0.0000 0.0000 19.7520 0.0000 0.0000
# 5 0.0000 0.0000 0.0000 0.0000 19.7520 0.0000
# 6 0.0000 0.0000 0.0000 0.0000 0.0000 34.5469
#
#
#
# Elastic Compliance Matrix: (Units=1/GPa)
#
#
# Indices 1 2 3 4 5 6 
#
# 1 0.011332 -0.003141 -0.002547 0.000000 0.000000 0.000000
# 2 -0.003141 0.011332 -0.002547 0.000000 0.000000 0.000000
# 3 -0.002547 -0.002547 0.037125 0.000000 0.000000 0.000000
# 4 0.000000 0.000000 0.000000 0.050628 0.000000 0.000000
# 5 0.000000 0.000000 0.000000 0.000000 0.050628 0.000000
# 6 0.000000 0.000000 0.000000 0.000000 0.000000 0.028946
#
#
# Mechanical properties :
#
#
# Convention : Reuss Voigt Hill
#
# Bulk Modulus (GPa) = 23.08451 35.35362 29.21906
# Shear Modulus (GPa) = 22.63451 26.67955 24.65703
#
# Velocity S-wave (km/s) = 3.00557 3.26310 3.13698
# Velocity P-wave (km/s) = 4.61060 5.32040 4.97817
#
# Compressibility (1/GPa) = 0.04331909
#
# Stress axis : x y z
#
# Youngs Moduli (GPa) = 88.24480 88.24480 26.93573
#
# Poissons Ratio (x) = 0.27717 0.06861
# Poissons Ratio (y) = 0.27717 0.06861
# Poissons Ratio (z) = 0.22477 0.22477
#
# Static dielectric constant tensor:
#      x y z
#    x 2.132760 0.000000 0.000000 
#    y 0.000000 2.132760 0.000000 
#    z 0.000000 0.000000 2.259480 
# 
# From -- ./inp_files/1463.got.cif
#   From: 2010.05.17/outbox.cif.g08.bks.cpg/sg170_cif.got.tgz:1463.got - 2010.05.20 11:14:30.
