data_PCOD9580034
_publ_section_title
;
Structure prediction by ZEFSAII (Michael W. Deem and Ramdas Pophale) SiO2 
 PCOD9580034
Probable space group: P 61
;
_chemical_formula_sum "Si O2"
_cell_formula_units_Z 48
_cell_length_a 14.061466
_cell_length_b 14.061466
_cell_length_c 12.052946
_cell_angle_alpha 90.000000
_cell_angle_beta 90.000000
_cell_angle_gamma 120.000000
_cell_volume 2063.882862
_symmetry_space_group_name_H-M "P 61"
_symmetry_group_IT_number 169
_symmetry_cell_setting 'hexagonal'
loop_
_space_group_symop_operation_xyz
x,y,z
x-y,x,1/6+z
-y,x-y,1/3+z
-x,-y,1/2+z
-x+y,-x,2/3+z
y,-x+y,5/6+z
loop_
_atom_site_type_symbol
_atom_site_label
_atom_site_fract_x
_atom_site_fract_y
_atom_site_fract_z
Si Si1 0.231956 0.502645 0.833600
Si Si2 0.339130 0.348519 0.581669
Si Si3 0.979608 0.810210 0.835744
Si Si4 0.825442 0.822578 0.228184
Si Si5 0.332795 0.979549 0.156798
Si Si6 0.143490 0.564925 0.360600
Si Si7 0.645501 0.849236 0.349653
Si Si8 0.213757 0.712530 0.887735
O O1 0.114542 0.414914 0.788113
O O2 0.320323 0.557997 0.738874
O O3 0.220235 0.601346 0.886565
O O4 0.264946 0.427699 0.909042
O O5 0.226110 0.286198 0.652101
O O6 0.324555 0.324823 0.451933
O O7 0.406882 0.475103 0.617010
O O8 0.040092 0.771831 0.745683
O O9 0.906559 0.841151 0.754381
O O10 0.926266 0.709091 0.923142
O O11 0.927309 0.846180 0.306896
O O12 0.727422 0.806313 0.310778
O O13 0.411349 0.098807 0.105004
O O14 0.396483 0.914043 0.129715
O O15 0.197071 0.510198 0.289462
O O16 0.549231 0.780972 0.436595
#
# Coordination Sequence:
#
# PCOD9580034 Si02
#       8
#     6   6   6   6   6   6   6   6
#     4  11  25  45  70 109 145 192 246 310 373 452
#     4  11  26  47  71 105 153 196 247 310 384 451
#     4  11  25  49  76 110 147 195 254 313 378 452
#     4  11  25  49  76 110 147 195 254 313 378 452
#     4  11  26  47  71 105 153 196 247 310 384 451
#     4  12  27  42  74 106 146 199 248 310 382 454
#     4  10  23  44  74 100 144 187 248 302 370 442
#     4  11  25  45  70 109 145 192 246 310 373 452
#
# _framework density 23.257133
#
# number of rings (size 3 to 8) (size 9 to 14) (size 15 to 20)
#    0.000    1.000    1.250    4.500    7.000    5.000 
#    0.000   10.000    0.000    0.000    0.000    0.000 
#    0.000    0.000    0.000    0.000    0.000    0.000 
#
# Total GULP energy -268153.579965 kJ/mol
# GULP energy per Si atom -5586.532916 kJ/mol
# Density = 2.320420 g / cm^3
# Si number density = 23.257133 Si / 1000 Ang^3
#
#
#
# Elastic Constant Matrix: (Units=GPa)
#
#
# Indices 1 2 3 4 5 6 
#
# 1 185.5137 -73.4529 25.3746 0.0000 0.0000 0.0000
# 2 -73.4529 185.5137 25.3746 0.0000 0.0000 0.0000
# 3 25.3746 25.3746 95.1865 0.0000 0.0000 0.0000
# 4 0.0000 0.0000 0.0000 14.4536 0.0000 0.0000
# 5 0.0000 0.0000 0.0000 0.0000 14.4536 0.0000
# 6 0.0000 0.0000 0.0000 0.0000 0.0000 129.4833
#
#
#
# Elastic Compliance Matrix: (Units=1/GPa)
#
#
# Indices 1 2 3 4 5 6 
#
# 1 0.007005 0.003144 -0.002705 0.000000 0.000000 0.000000
# 2 0.003144 0.007005 -0.002705 0.000000 0.000000 0.000000
# 3 -0.002705 -0.002705 0.011948 0.000000 0.000000 0.000000
# 4 0.000000 0.000000 0.000000 0.069187 0.000000 0.000000
# 5 0.000000 0.000000 0.000000 0.000000 0.069187 0.000000
# 6 0.000000 0.000000 0.000000 0.000000 0.000000 0.007723
#
#
# Mechanical properties :
#
#
# Convention : Reuss Voigt Hill
#
# Bulk Modulus (GPa) = 46.67639 46.75630 46.71634
# Shear Modulus (GPa) = 27.21362 64.27258 45.74310
#
# Velocity S-wave (km/s) = 3.42441 5.26266 4.43972
# Velocity P-wave (km/s) = 5.97902 7.55482 6.81263
#
# Compressibility (1/GPa) = 0.02142411
#
# Stress axis : x y z
#
# Youngs Moduli (GPa) = 142.75032 142.75032 83.69505
#
# Poissons Ratio (x) = -0.44877 0.22644
# Poissons Ratio (y) = -0.44877 0.22644
# Poissons Ratio (z) = 0.38621 0.38621
#
# Static dielectric constant tensor:
#      x y z
#    x 2.309890 0.000000 0.000000 
#    y 0.000000 2.309890 0.000000 
#    z 0.000000 0.000000 1.924420 
# 
# From -- ./inp_files/1039.got.cif
#   From: 2010.05.17/outbox.cif.g08.bks.cpg/sg169_cif.got.tgz:1039.got - 2010.05.20 11:12:54.
