data_PCOD9580763
_publ_section_title
;
Structure prediction by ZEFSAII (Michael W. Deem and Ramdas Pophale) SiO2 
 PCOD9580763
Probable space group: P 62
;
_chemical_formula_sum "Si O2"
_cell_formula_units_Z 36
_cell_length_a 11.162811
_cell_length_b 11.162811
_cell_length_c 14.154298
_cell_angle_alpha 90.000000
_cell_angle_beta 90.000000
_cell_angle_gamma 120.000000
_cell_volume 1527.446859
_symmetry_space_group_name_H-M "P 62"
_symmetry_group_IT_number 171
_symmetry_cell_setting 'hexagonal'
loop_
_space_group_symop_operation_xyz
x,y,z
x-y,x,1/3+z
-y,x-y,2/3+z
-x,-y,z
-x+y,-x,1/3+z
y,-x+y,2/3+z
loop_
_atom_site_type_symbol
_atom_site_label
_atom_site_fract_x
_atom_site_fract_y
_atom_site_fract_z
Si Si1 0.377763 0.527583 0.679480
Si Si2 0.933604 0.603443 0.239529
Si Si3 0.739644 0.861878 0.283212
Si Si4 0.320306 0.667583 0.185425
Si Si5 0.586787 0.664573 0.124028
Si Si6 0.908837 0.836851 0.816802
O O1 0.500000 0.500000 0.703142
O O2 0.268413 0.397042 0.623454
O O3 0.306150 0.543402 0.771704
O O4 0.416078 0.657167 0.611583
O O5 0.775296 0.494293 0.210974
O O6 0.944618 0.642053 0.350406
O O7 0.993567 0.743927 0.176336
O O8 0.000000 0.500000 0.234702
O O9 0.704160 0.746283 0.203144
O O10 0.852240 0.011125 0.245304
O O11 0.769996 0.835782 0.389586
O O12 0.464957 0.700910 0.139708
O O13 0.500000 0.500000 0.138176
O O14 0.000000 0.000000 0.791454
#
# Coordination Sequence:
#
# PCOD9580763 Si02
#       6
#     6   6   6   6   6   6
#     4  11  25  44  75 111 149 199 257 331 399 477
#     4  11  25  46  82 110 151 203 265 329 397 483
#     4  11  28  48  71 109 153 200 256 324 407 480
#     4  11  22  46  71 110 148 195 258 320 394 473
#     4  10  25  45  74 107 146 203 259 320 391 474
#     4  12  29  49  75 113 154 209 260 326 411 493
#
# _framework density 23.568743999999999
#
# number of rings (size 3 to 8) (size 9 to 14) (size 15 to 20)
#    0.000    1.000    1.667    3.000   11.667    1.333 
#    3.000    0.000    0.000    0.000    0.000    0.000 
#    0.000    0.000    0.000    0.000    0.000    0.000 
#
# Total GULP energy -200910.962108 kJ/mol
# GULP energy per Si atom -5580.860059 kJ/mol
# Density = 2.351510 g / cm^3
# Si number density = 23.568744 Si / 1000 Ang^3
#
#
#
# Elastic Constant Matrix: (Units=GPa)
#
#
# Indices 1 2 3 4 5 6 
#
# 1 86.9222 20.3884 27.8329 0.0000 0.0000 0.0000
# 2 20.3884 86.9222 27.8329 0.0000 0.0000 0.0000
# 3 27.8329 27.8329 133.8701 0.0000 0.0000 0.0000
# 4 0.0000 0.0000 0.0000 31.4638 0.0000 0.0000
# 5 0.0000 0.0000 0.0000 0.0000 31.4638 0.0000
# 6 0.0000 0.0000 0.0000 0.0000 0.0000 33.2669
#
#
#
# Elastic Compliance Matrix: (Units=1/GPa)
#
#
# Indices 1 2 3 4 5 6 
#
# 1 0.012738 -0.002292 -0.002172 0.000000 0.000000 0.000000
# 2 -0.002292 0.012738 -0.002172 0.000000 0.000000 0.000000
# 3 -0.002172 -0.002172 0.008373 0.000000 0.000000 0.000000
# 4 0.000000 0.000000 0.000000 0.031783 0.000000 0.000000
# 5 0.000000 0.000000 0.000000 0.000000 0.031783 0.000000
# 6 0.000000 0.000000 0.000000 0.000000 0.000000 0.030060
#
#
# Mechanical properties :
#
#
# Convention : Reuss Voigt Hill
#
# Bulk Modulus (GPa) = 48.59846 51.09146 49.84496
# Shear Modulus (GPa) = 33.87452 34.68291 34.27872
#
# Velocity S-wave (km/s) = 3.79524 3.84026 3.81782
# Velocity P-wave (km/s) = 6.31425 6.43336 6.37408
#
# Compressibility (1/GPa) = 0.02057678
#
# Stress axis : x y z
#
# Youngs Moduli (GPa) = 78.50767 78.50767 119.43216
#
# Poissons Ratio (x) = 0.17997 0.25937
# Poissons Ratio (y) = 0.17997 0.25937
# Poissons Ratio (z) = 0.17049 0.17049
#
# Static dielectric constant tensor:
#      x y z
#    x 1.936540 0.000000 0.000000 
#    y 0.000000 1.936540 0.000000 
#    z 0.000000 0.000000 1.886920 
# 
# From -- ./inp_files/4807.got.cif
#   From: 2010.05.17/outbox.cif.g08.bks.cpg/sg171_3_cif.got.tgz:4807.got - 2010.05.20 11:16:09.
