data_PCOD9580121
_publ_section_title
;
Structure prediction by ZEFSAII (Michael W. Deem and Ramdas Pophale) SiO2 
 PCOD9580121
Probable space group: P 61
;
_chemical_formula_sum "Si O2"
_cell_formula_units_Z 24
_cell_length_a 7.140090
_cell_length_b 7.140090
_cell_length_c 18.693102
_cell_angle_alpha 90.000000
_cell_angle_beta 90.000000
_cell_angle_gamma 120.000000
_cell_volume 825.314318
_symmetry_space_group_name_H-M "P 61"
_symmetry_group_IT_number 169
_symmetry_cell_setting 'hexagonal'
loop_
_space_group_symop_operation_xyz
x,y,z
x-y,x,1/6+z
-y,x-y,1/3+z
-x,-y,1/2+z
-x+y,-x,2/3+z
y,-x+y,5/6+z
loop_
_atom_site_type_symbol
_atom_site_label
_atom_site_fract_x
_atom_site_fract_y
_atom_site_fract_z
Si Si1 0.555040 0.490981 0.005050
Si Si2 0.060352 0.492785 0.867838
Si Si3 0.065862 0.040736 0.533575
Si Si4 0.808441 0.402655 0.516594
O O1 0.518382 0.029364 0.118356
O O2 0.745031 0.707758 0.039877
O O3 0.325874 0.471771 0.023919
O O4 0.585934 0.521201 0.920207
O O5 0.086773 0.284719 0.860256
O O6 0.271801 0.713852 0.849677
O O7 0.842785 0.462618 0.833309
O O8 0.979720 0.023618 0.448708
#
# Coordination Sequence:
#
# PCOD9580121 Si02
#       4
#     6   6   6   6
#     4  11  24  49  79 121 166 227 288 368 444 522
#     4  11  24  49  79 121 166 227 288 368 444 522
#     4  11  26  50  88 125 170 228 291 364 440 531
#     4  11  26  44  82 117 164 220 287 360 454 529
#
# _framework density 29.079827000000002
#
# number of rings (size 3 to 8) (size 9 to 14) (size 15 to 20)
#    0.000    1.000    0.000    7.500   10.500    0.000 
#    4.500    0.000    0.000    0.000    0.000    0.000 
#    0.000    0.000    0.000    0.000    0.000    0.000 
#
# Total GULP energy -134606.273900 kJ/mol
# GULP energy per Si atom -5608.594746 kJ/mol
# Density = 2.901364 g / cm^3
# Si number density = 29.079827 Si / 1000 Ang^3
#
#
#
# Elastic Constant Matrix: (Units=GPa)
#
#
# Indices 1 2 3 4 5 6 
#
# 1 127.9082 24.7052 13.4972 0.0000 0.0000 0.0000
# 2 24.7052 127.9082 13.4972 0.0000 0.0000 0.0000
# 3 13.4972 13.4972 191.8429 0.0000 0.0000 0.0000
# 4 0.0000 0.0000 0.0000 52.2450 0.0000 0.0000
# 5 0.0000 0.0000 0.0000 0.0000 52.2450 0.0000
# 6 0.0000 0.0000 0.0000 0.0000 0.0000 51.6015
#
#
#
# Elastic Compliance Matrix: (Units=1/GPa)
#
#
# Indices 1 2 3 4 5 6 
#
# 1 0.008162 -0.001527 -0.000467 0.000000 0.000000 0.000000
# 2 -0.001527 0.008162 -0.000467 0.000000 0.000000 0.000000
# 3 -0.000467 -0.000467 0.005278 0.000000 0.000000 0.000000
# 4 0.000000 0.000000 0.000000 0.019141 0.000000 0.000000
# 5 0.000000 0.000000 0.000000 0.000000 0.019141 0.000000
# 6 0.000000 0.000000 0.000000 0.000000 0.000000 0.019379
#
#
# Mechanical properties :
#
#
# Convention : Reuss Voigt Hill
#
# Bulk Modulus (GPa) = 59.94779 61.22871 60.58825
# Shear Modulus (GPa) = 55.71298 57.61561 56.66429
#
# Velocity S-wave (km/s) = 4.38181 4.45600 4.41906
# Velocity P-wave (km/s) = 6.80147 6.89751 6.84966
#
# Compressibility (1/GPa) = 0.01668118
#
# Stress axis : x y z
#
# Youngs Moduli (GPa) = 122.51358 122.51358 189.45548
#
# Poissons Ratio (x) = 0.18711 0.08844
# Poissons Ratio (y) = 0.18711 0.08844
# Poissons Ratio (z) = 0.05719 0.05719
#
# Static dielectric constant tensor:
#      x y z
#    x 2.216680 0.000000 0.000000 
#    y 0.000000 2.216680 0.000000 
#    z 0.000000 0.000000 2.338740 
# 
# From -- ./inp_files/1463.got.cif
#   From: 2010.05.17/outbox.cif.g08.bks.cpg/sg169_cif.got.tgz:1463.got - 2010.05.20 11:12:54.
