data_PCOD9580657
_publ_section_title
;
Structure prediction by ZEFSAII (Michael W. Deem and Ramdas Pophale) SiO2 
 PCOD9580657
Probable space group: P 62
;
_chemical_formula_sum "Si O2"
_cell_formula_units_Z 33
_cell_length_a 19.623593
_cell_length_b 19.623593
_cell_length_c 4.731207
_cell_angle_alpha 90.000000
_cell_angle_beta 90.000000
_cell_angle_gamma 120.000000
_cell_volume 1577.827922
_symmetry_space_group_name_H-M "P 62"
_symmetry_group_IT_number 171
_symmetry_cell_setting 'hexagonal'
loop_
_space_group_symop_operation_xyz
x,y,z
x-y,x,1/3+z
-y,x-y,2/3+z
-x,-y,z
-x+y,-x,1/3+z
y,-x+y,2/3+z
loop_
_atom_site_type_symbol
_atom_site_label
_atom_site_fract_x
_atom_site_fract_y
_atom_site_fract_z
Si Si1 0.000000 0.500000 0.901391
Si Si2 0.991063 0.633270 0.538618
Si Si3 0.845105 0.267950 0.246557
Si Si4 0.171710 0.553810 0.070217
Si Si5 0.529218 0.238771 0.071095
Si Si6 0.724297 0.106834 0.339638
O O1 0.998223 0.433429 0.697963
O O2 0.081738 0.539582 0.083200
O O3 0.921570 0.608586 0.312883
O O4 0.066042 0.684236 0.345643
O O5 0.965067 0.668370 0.798838
O O6 0.802235 0.305457 0.431407
O O7 0.811941 0.177560 0.335904
O O8 0.268863 0.451598 0.594715
O O9 0.225862 0.631352 0.889229
O O10 0.223667 0.551758 0.332380
O O11 0.151319 0.473762 0.901181
#
# Coordination Sequence:
#
# PCOD9580657 Si02
#       6
#     3   6   6   6   6   6
#     4  10  22  40  70  96 118 158 236 272 322 418
#     4  11  22  38  66  91 116 167 204 267 330 383
#     4  11  23  42  60  91 127 154 204 267 327 384
#     4  10  23  43  62  92 117 165 210 280 334 409
#     4  11  24  42  62  85 122 160 206 268 348 387
#     4  10  23  38  59  90 121 154 211 262 321 390
#
# _framework density 20.914829000000001
#
# number of rings (size 3 to 8) (size 9 to 14) (size 15 to 20)
#    0.000    1.455    1.818    3.273    5.091    3.636 
#    0.000   14.545    0.000    0.000    0.000    0.000 
#    0.000    0.000    0.000    8.182    0.000    0.000 
#
# Total GULP energy -184112.050540 kJ/mol
# GULP energy per Si atom -5579.153047 kJ/mol
# Density = 2.086723 g / cm^3
# Si number density = 20.914829 Si / 1000 Ang^3
#
#
#
# Elastic Constant Matrix: (Units=GPa)
#
#
# Indices 1 2 3 4 5 6 
#
# 1 85.6325 44.4586 35.3925 0.0000 0.0000 0.0000
# 2 44.4586 85.6325 35.3925 0.0000 0.0000 0.0000
# 3 35.3925 35.3925 123.8334 0.0000 0.0000 0.0000
# 4 0.0000 0.0000 0.0000 30.5333 0.0000 0.0000
# 5 0.0000 0.0000 0.0000 0.0000 30.5333 0.0000
# 6 0.0000 0.0000 0.0000 0.0000 0.0000 20.5870
#
#
#
# Elastic Compliance Matrix: (Units=1/GPa)
#
#
# Indices 1 2 3 4 5 6 
#
# 1 0.016695 -0.007592 -0.002602 0.000000 0.000000 0.000000
# 2 -0.007592 0.016695 -0.002602 0.000000 0.000000 0.000000
# 3 -0.002602 -0.002602 0.009562 0.000000 0.000000 0.000000
# 4 0.000000 0.000000 0.000000 0.032751 0.000000 0.000000
# 5 0.000000 0.000000 0.000000 0.000000 0.032751 0.000000
# 6 0.000000 0.000000 0.000000 0.000000 0.000000 0.048574
#
#
# Mechanical properties :
#
#
# Convention : Reuss Voigt Hill
#
# Bulk Modulus (GPa) = 57.59973 58.39838 57.99906
# Shear Modulus (GPa) = 26.53832 28.32104 27.42968
#
# Velocity S-wave (km/s) = 3.56599 3.68382 3.62538
# Velocity P-wave (km/s) = 6.67495 6.78798 6.73170
#
# Compressibility (1/GPa) = 0.01736119
#
# Stress axis : x y z
#
# Youngs Moduli (GPa) = 59.89875 59.89875 104.57566
#
# Poissons Ratio (x) = 0.45477 0.27206
# Poissons Ratio (y) = 0.45477 0.27206
# Poissons Ratio (z) = 0.15583 0.15583
#
# Static dielectric constant tensor:
#      x y z
#    x 1.853480 0.000000 0.000000 
#    y 0.000000 1.853480 0.000000 
#    z 0.000000 0.000000 1.817520 
# 
# From -- ./inp_files/4205.got.cif
#   From: 2010.05.17/outbox.cif.g08.bks.cpg/sg171_3_cif.got.tgz:4205.got - 2010.05.20 11:16:09.
