data_PCOD9580758
_publ_section_title
;
Structure prediction by ZEFSAII (Michael W. Deem and Ramdas Pophale) SiO2 
 PCOD9580758
Probable space group: P 62
;
_chemical_formula_sum "Si O2"
_cell_formula_units_Z 30
_cell_length_a 16.660342
_cell_length_b 16.660342
_cell_length_c 5.198005
_cell_angle_alpha 90.000000
_cell_angle_beta 90.000000
_cell_angle_gamma 120.000000
_cell_volume 1249.496803
_symmetry_space_group_name_H-M "P 62"
_symmetry_group_IT_number 171
_symmetry_cell_setting 'hexagonal'
loop_
_space_group_symop_operation_xyz
x,y,z
x-y,x,1/3+z
-y,x-y,2/3+z
-x,-y,z
-x+y,-x,1/3+z
y,-x+y,2/3+z
loop_
_atom_site_type_symbol
_atom_site_label
_atom_site_fract_x
_atom_site_fract_y
_atom_site_fract_z
Si Si1 0.216998 0.297394 0.481900
Si Si2 0.362872 0.911238 0.612158
Si Si3 0.745018 0.172328 0.114339
Si Si4 0.823306 0.890059 0.759183
Si Si5 0.900495 0.361846 0.096190
O O1 0.160580 0.333495 0.655438
O O2 0.209998 0.205375 0.601728
O O3 0.158478 0.261399 0.222397
O O4 0.319324 0.390358 0.516079
O O5 0.333194 0.865414 0.891684
O O6 0.444876 0.903490 0.465808
O O7 0.394873 0.019558 0.628381
O O8 0.284795 0.867023 0.396529
O O9 0.796090 0.283087 0.145351
O O10 0.880843 0.988844 0.623859
#
# Coordination Sequence:
#
# PCOD9580758 Si02
#       5
#     6   6   6   6   6
#     4  10  25  43  67 106 138 204 244 316 371 470
#     4  11  23  50  69 109 143 191 244 310 373 451
#     4  10  26  42  75 104 143 188 246 304 378 442
#     4  12  27  44  68 104 154 199 261 307 379 452
#     4   9  25  44  75 102 144 191 241 309 375 451
#
# _framework density 24.009661999999999
#
# number of rings (size 3 to 8) (size 9 to 14) (size 15 to 20)
#    1.200    0.400    0.000    2.400    8.400   10.400 
#    7.200    0.000    0.000    0.000    0.000    0.000 
#    0.000    0.000    0.000    0.000    0.000    0.000 
#
# Total GULP energy -167084.746839 kJ/mol
# GULP energy per Si atom -5569.491561 kJ/mol
# Density = 2.395502 g / cm^3
# Si number density = 24.009662 Si / 1000 Ang^3
#
#
#
# Elastic Constant Matrix: (Units=GPa)
#
#
# Indices 1 2 3 4 5 6 
#
# 1 99.4635 44.7908 36.0678 0.0000 0.0000 0.0000
# 2 44.7908 99.4635 36.0678 0.0000 0.0000 0.0000
# 3 36.0678 36.0678 107.0885 0.0000 0.0000 0.0000
# 4 0.0000 0.0000 0.0000 6.5158 0.0000 0.0000
# 5 0.0000 0.0000 0.0000 0.0000 6.5158 0.0000
# 6 0.0000 0.0000 0.0000 0.0000 0.0000 27.3363
#
#
#
# Elastic Compliance Matrix: (Units=1/GPa)
#
#
# Indices 1 2 3 4 5 6 
#
# 1 0.013313 -0.004977 -0.002808 0.000000 0.000000 0.000000
# 2 -0.004977 0.013313 -0.002808 0.000000 0.000000 0.000000
# 3 -0.002808 -0.002808 0.011229 0.000000 0.000000 0.000000
# 4 0.000000 0.000000 0.000000 0.153472 0.000000 0.000000
# 5 0.000000 0.000000 0.000000 0.000000 0.153472 0.000000
# 6 0.000000 0.000000 0.000000 0.000000 0.000000 0.036581
#
#
# Mechanical properties :
#
#
# Convention : Reuss Voigt Hill
#
# Bulk Modulus (GPa) = 59.98411 59.98536 59.98473
# Shear Modulus (GPa) = 12.25116 20.67955 16.46536
#
# Velocity S-wave (km/s) = 2.26134 2.93798 2.62158
# Velocity P-wave (km/s) = 5.64409 6.04541 5.84820
#
# Compressibility (1/GPa) = 0.01667108
#
# Stress axis : x y z
#
# Youngs Moduli (GPa) = 75.11213 75.11213 89.05255
#
# Poissons Ratio (x) = 0.37385 0.25003
# Poissons Ratio (y) = 0.37385 0.25003
# Poissons Ratio (z) = 0.21089 0.21089
#
# Static dielectric constant tensor:
#      x y z
#    x 2.014140 0.000000 0.000000 
#    y 0.000000 2.014140 0.000000 
#    z 0.000000 0.000000 1.931500 
# 
# From -- ./inp_files/4149.got.cif
#   From: 2010.05.17/outbox.cif.g08.bks.cpg/sg171_3_cif.got.tgz:4149.got - 2010.05.20 11:16:09.
