data_PCOD9580976
_publ_section_title
;
Structure prediction by ZEFSAII (Michael W. Deem and Ramdas Pophale) SiO2 
 PCOD9580976
Probable space group: P 64
;
_chemical_formula_sum "Si O2"
_cell_formula_units_Z 30
_cell_length_a 16.598920
_cell_length_b 16.598920
_cell_length_c 5.293797
_cell_angle_alpha 90.000000
_cell_angle_beta 90.000000
_cell_angle_gamma 120.000000
_cell_volume 1263.157715
_symmetry_space_group_name_H-M "P 64"
_symmetry_group_IT_number 172
_symmetry_cell_setting 'hexagonal'
loop_
_space_group_symop_operation_xyz
x,y,z
x-y,x,2/3+z
-y,x-y,1/3+z
-x,-y,z
-x+y,-x,2/3+z
y,-x+y,1/3+z
loop_
_atom_site_type_symbol
_atom_site_label
_atom_site_fract_x
_atom_site_fract_y
_atom_site_fract_z
Si Si1 0.177793 0.069932 0.098260
Si Si2 0.985498 0.725149 0.035271
Si Si3 0.509321 0.872302 0.146616
Si Si4 0.424379 0.170747 0.631920
Si Si5 0.921227 0.569244 0.390440
O O1 0.253366 0.167211 0.226849
O O2 0.106460 0.986908 0.275108
O O3 0.225875 0.021913 0.940649
O O4 0.948238 0.617576 0.110485
O O5 0.082192 0.756697 0.898037
O O6 0.515424 0.811140 0.375514
O O7 0.527554 0.849968 0.865154
O O8 0.414135 0.874645 0.116301
O O9 0.591545 0.979310 0.190781
O O10 0.404895 0.246863 0.762399
#
# Coordination Sequence:
#
# PCOD9580976 Si02
#       5
#     6   6   6   6   6
#     4  12  26  44  64 107 151 208 261 316 376 449
#     4  11  27  42  73 103 144 206 247 313 381 453
#     4  10  26  46  72 111 138 196 242 300 386 434
#     4  11  25  45  74 107 142 190 244 302 376 446
#     4  10  24  48  73 101 150 184 244 311 359 467
#
# _framework density 23.750003
#
# number of rings (size 3 to 8) (size 9 to 14) (size 15 to 20)
#    0.000    1.200    0.000    3.600   14.000   13.600 
#    3.600    0.000    0.000    0.000    0.000    0.000 
#    0.000    0.000    0.000    0.000    0.000    0.000 
#
# Total GULP energy -167193.595261 kJ/mol
# GULP energy per Si atom -5573.119842 kJ/mol
# Density = 2.369595 g / cm^3
# Si number density = 23.750003 Si / 1000 Ang^3
#
#
#
# Elastic Constant Matrix: (Units=GPa)
#
#
# Indices 1 2 3 4 5 6 
#
# 1 21.7492 36.0350 18.3745 0.0000 0.0000 0.0000
# 2 36.0350 21.7492 18.3745 0.0000 0.0000 0.0000
# 3 18.3745 18.3745 99.8057 0.0000 0.0000 0.0000
# 4 0.0000 0.0000 0.0000 22.7374 0.0000 0.0000
# 5 0.0000 0.0000 0.0000 0.0000 22.7374 0.0000
# 6 0.0000 0.0000 0.0000 0.0000 0.0000 -7.1429
#
#
#
# Elastic Compliance Matrix: (Units=1/GPa)
#
#
# Indices 1 2 3 4 5 6 
#
# 1 -0.025200 0.044800 -0.003609 0.000000 0.000000 0.000000
# 2 0.044800 -0.025200 -0.003609 0.000000 0.000000 0.000000
# 3 -0.003609 -0.003609 0.011348 0.000000 0.000000 0.000000
# 4 0.000000 0.000000 0.000000 0.043980 0.000000 0.000000
# 5 0.000000 0.000000 0.000000 0.000000 0.043980 0.000000
# 6 0.000000 0.000000 0.000000 0.000000 0.000000 -0.139999
#
#
# Mechanical properties :
#
#
# Convention : Reuss Voigt Hill
#
# Bulk Modulus (GPa) = 27.68906 32.09692 29.89299
# Shear Modulus (GPa) = -32.42174 12.36774 -10.02700
#
# Velocity S-wave (km/s) = -3.69877 2.28446 -2.05695
# Velocity P-wave (km/s) = 2.56073 4.52793 2.64054
#
# Compressibility (1/GPa) = 0.03611534
#
# Stress axis : x y z
#
# Youngs Moduli (GPa) = -39.68327 -39.68327 88.12006
#
# Poissons Ratio (x) = 1.77782 0.31798
# Poissons Ratio (y) = 1.77782 0.31798
# Poissons Ratio (z) = -0.14320 -0.14320
#
# Static dielectric constant tensor:
#      x y z
#    x 1.955310 0.000000 0.000000 
#    y 0.000000 1.955310 0.000000 
#    z 0.000000 0.000000 2.116330 
# 
# From -- ./inp_files/208.got.cif
#   From: 2010.05.17/outbox.cif.g08.bks.cpg/sg172_1_cif.got.tgz:208.got - 2010.05.20 11:19:57.
