data_PCOD9580179
_publ_section_title
;
Structure prediction by ZEFSAII (Michael W. Deem and Ramdas Pophale) SiO2 
 PCOD9580179
Probable space group: P 65
;
_chemical_formula_sum "Si O2"
_cell_formula_units_Z 42
_cell_length_a 8.637283
_cell_length_b 8.637283
_cell_length_c 29.943480
_cell_angle_alpha 90.000000
_cell_angle_beta 90.000000
_cell_angle_gamma 120.000000
_cell_volume 1934.582268
_symmetry_space_group_name_H-M "P 65"
_symmetry_group_IT_number 170
_symmetry_cell_setting 'hexagonal'
loop_
_space_group_symop_operation_xyz
x,y,z
x-y,x,5/6+z
-y,x-y,2/3+z
-x,-y,1/2+z
-x+y,-x,1/3+z
y,-x+y,1/6+z
loop_
_atom_site_type_symbol
_atom_site_label
_atom_site_fract_x
_atom_site_fract_y
_atom_site_fract_z
Si Si1 1.000000 0.598950 0.359820
Si Si2 0.006830 0.875665 0.648511
Si Si3 0.614416 0.693746 0.653516
Si Si4 0.004943 0.366161 0.279003
Si Si5 0.693746 0.614416 0.399458
Si Si6 0.995057 0.361218 0.440637
Si Si7 0.006830 0.131165 0.571129
O O1 0.177157 0.792269 0.358661
O O2 0.015483 0.495313 0.401727
O O3 0.984517 0.479830 0.317913
O O4 0.822843 0.615112 0.360979
O O5 0.808482 0.710235 0.655532
O O6 0.163566 0.847191 0.628548
O O7 0.979649 0.989825 0.609820
O O8 0.080421 0.000000 0.693153
O O9 0.602573 0.801287 0.609820
O O10 0.448189 0.493926 0.649992
O O11 0.821145 0.178855 0.276487
O O12 0.045737 0.493926 0.236314
O O13 0.710235 0.808482 0.397441
O O14 0.847191 0.163566 0.424425
#
# Coordination Sequence:
#
# PCOD9580179 Si02
#       7
#     6   6   6   6   6   6   6
#     4  10  18  38  60  80 116 160 202 252 306 382
#     4  10  19  37  64  89 121 169 212 258 321 396
#     4   9  19  36  61  83 113 161 202 246 311 384
#     4  10  21  38  55  88 123 151 206 270 315 378
#     4   9  19  36  61  83 113 161 202 246 311 384
#     4  10  21  38  55  88 123 151 206 270 315 378
#     4  10  19  37  64  89 121 169 212 258 321 396
#
# _framework density 21.710113
#
# number of rings (size 3 to 8) (size 9 to 14) (size 15 to 20)
#    0.000    2.286    2.857    0.000    0.000    0.000 
#   10.286    4.286    0.000    0.000    0.000    0.000 
#    0.000    0.000    0.000    0.000    0.000    0.000 
#
# Total GULP energy -233944.163123 kJ/mol
# GULP energy per Si atom -5570.099122 kJ/mol
# Density = 2.166070 g / cm^3
# Si number density = 21.710113 Si / 1000 Ang^3
#
#
#
# Elastic Constant Matrix: (Units=GPa)
#
#
# Indices 1 2 3 4 5 6 
#
# 1 70.6707 42.1976 -1.3291 0.0000 0.0000 0.0000
# 2 42.1976 70.6707 -1.3291 0.0000 0.0000 0.0000
# 3 -1.3291 -1.3291 39.7473 0.0000 0.0000 0.0000
# 4 0.0000 0.0000 0.0000 26.1727 0.0000 0.0000
# 5 0.0000 0.0000 0.0000 0.0000 26.1727 0.0000
# 6 0.0000 0.0000 0.0000 0.0000 0.0000 14.2365
#
#
#
# Elastic Compliance Matrix: (Units=1/GPa)
#
#
# Indices 1 2 3 4 5 6 
#
# 1 0.021994 -0.013127 0.000296 0.000000 0.000000 0.000000
# 2 -0.013127 0.021994 0.000296 0.000000 0.000000 0.000000
# 3 0.000296 0.000296 0.025179 0.000000 0.000000 0.000000
# 4 0.000000 0.000000 0.000000 0.038208 0.000000 0.000000
# 5 0.000000 0.000000 0.000000 0.000000 0.038208 0.000000
# 6 0.000000 0.000000 0.000000 0.000000 0.000000 0.070242
#
#
# Mechanical properties :
#
#
# Convention : Reuss Voigt Hill
#
# Bulk Modulus (GPa) = 22.67652 28.90751 25.79202
# Shear Modulus (GPa) = 19.56248 22.75301 21.15774
#
# Velocity S-wave (km/s) = 3.00505 3.24085 3.12518
# Velocity P-wave (km/s) = 4.74429 5.22956 4.99282
#
# Compressibility (1/GPa) = 0.04409847
#
# Stress axis : x y z
#
# Youngs Moduli (GPa) = 45.46720 45.46720 39.71602
#
# Poissons Ratio (x) = 0.59685 -0.01178
# Poissons Ratio (y) = 0.59685 -0.01178
# Poissons Ratio (z) = -0.01348 -0.01348
#
# Static dielectric constant tensor:
#      x y z
#    x 1.850340 0.000000 0.000000 
#    y 0.000000 1.850340 0.000000 
#    z 0.000000 0.000000 1.959990 
# 
# From -- ./inp_files/1930.got.cif
#   From: 2010.05.17/outbox.cif.g08.bks.cpg/sg170_cif.got.tgz:1930.got - 2010.05.20 11:14:30.
