data_PCOD9580526
_publ_section_title
;
Structure prediction by ZEFSAII (Michael W. Deem and Ramdas Pophale) SiO2 
 PCOD9580526
Probable space group: P 62
;
_chemical_formula_sum "Si O2"
_cell_formula_units_Z 27
_cell_length_a 12.672663
_cell_length_b 12.672663
_cell_length_c 7.691755
_cell_angle_alpha 90.000000
_cell_angle_beta 90.000000
_cell_angle_gamma 120.000000
_cell_volume 1069.773526
_symmetry_space_group_name_H-M "P 62"
_symmetry_group_IT_number 171
_symmetry_cell_setting 'hexagonal'
loop_
_space_group_symop_operation_xyz
x,y,z
x-y,x,1/3+z
-y,x-y,2/3+z
-x,-y,z
-x+y,-x,1/3+z
y,-x+y,2/3+z
loop_
_atom_site_type_symbol
_atom_site_label
_atom_site_fract_x
_atom_site_fract_y
_atom_site_fract_z
Si Si1 0.501580 0.142218 0.935480
Si Si2 0.068706 0.899599 0.988294
Si Si3 0.747675 0.105715 0.446956
Si Si4 0.500000 0.500000 0.943449
Si Si5 0.417706 0.293886 0.391254
O O1 0.428983 0.213208 0.912348
O O2 0.526066 0.107316 0.743723
O O3 0.635613 0.197445 0.017186
O O4 0.401971 0.016094 0.028166
O O5 0.178637 0.870002 0.959298
O O6 0.963050 0.787024 0.099070
O O7 0.118189 0.011583 0.128747
O O8 0.609173 0.014185 0.493936
O O9 0.749411 0.150564 0.253721
#
# Coordination Sequence:
#
# PCOD9580526 Si02
#       5
#     6   6   6   3   6
#     4  10  23  44  68 102 143 196 250 320 375 454
#     4  10  22  44  77 112 157 209 258 323 399 486
#     4  11  22  44  71 104 145 196 249 315 391 463
#     4  10  20  38  62  98 136 180 246 296 378 448
#     4   9  21  44  73 101 144 197 254 315 377 458
#
# _framework density 25.238989
#
# number of rings (size 3 to 8) (size 9 to 14) (size 15 to 20)
#    0.000    2.222    0.000    4.000    0.000    7.111 
#    8.000    7.778    0.000    5.333    0.000    0.000 
#    0.000    0.000    0.000    0.000    0.000    0.000 
#
# Total GULP energy -150744.482224 kJ/mol
# GULP energy per Si atom -5583.128971 kJ/mol
# Density = 2.518154 g / cm^3
# Si number density = 25.238989 Si / 1000 Ang^3
#
#
#
# Elastic Constant Matrix: (Units=GPa)
#
#
# Indices 1 2 3 4 5 6 
#
# 1 117.3848 40.0008 42.2172 0.0000 0.0000 0.0000
# 2 40.0008 117.3848 42.2172 0.0000 0.0000 0.0000
# 3 42.2172 42.2172 97.1594 0.0000 0.0000 0.0000
# 4 0.0000 0.0000 0.0000 51.2007 0.0000 0.0000
# 5 0.0000 0.0000 0.0000 0.0000 51.2007 0.0000
# 6 0.0000 0.0000 0.0000 0.0000 0.0000 38.6920
#
#
#
# Elastic Compliance Matrix: (Units=1/GPa)
#
#
# Indices 1 2 3 4 5 6 
#
# 1 0.010604 -0.002319 -0.003600 0.000000 0.000000 0.000000
# 2 -0.002319 0.010604 -0.003600 0.000000 0.000000 0.000000
# 3 -0.003600 -0.003600 0.013421 0.000000 0.000000 0.000000
# 4 0.000000 0.000000 0.000000 0.019531 0.000000 0.000000
# 5 0.000000 0.000000 0.000000 0.000000 0.019531 0.000000
# 6 0.000000 0.000000 0.000000 0.000000 0.000000 0.025845
#
#
# Mechanical properties :
#
#
# Convention : Reuss Voigt Hill
#
# Bulk Modulus (GPa) = 64.13908 64.53327 64.33617
# Shear Modulus (GPa) = 40.39740 42.05159 41.22449
#
# Velocity S-wave (km/s) = 4.00508 4.08626 4.04588
# Velocity P-wave (km/s) = 6.84511 6.92010 6.88270
#
# Compressibility (1/GPa) = 0.01559112
#
# Stress axis : x y z
#
# Youngs Moduli (GPa) = 94.30516 94.30516 74.51064
#
# Poissons Ratio (x) = 0.21867 0.26824
# Poissons Ratio (y) = 0.21867 0.26824
# Poissons Ratio (z) = 0.33950 0.33950
#
# Static dielectric constant tensor:
#      x y z
#    x 2.011630 0.000000 0.000000 
#    y 0.000000 2.011630 0.000000 
#    z 0.000000 0.000000 1.973570 
# 
# From -- ./inp_files/1030.got.cif
#   From: 2010.05.17/outbox.cif.g08.bks.cpg/sg171_1_cif.got.tgz:1030.got - 2010.05.20 11:16:09.
