data_PCOD9580171
_publ_section_title
;
Structure prediction by ZEFSAII (Michael W. Deem and Ramdas Pophale) SiO2 
 PCOD9580171
Probable space group: P 65
;
_chemical_formula_sum "Si O2"
_cell_formula_units_Z 42
_cell_length_a 13.844227
_cell_length_b 13.844227
_cell_length_c 10.131640
_cell_angle_alpha 90.000000
_cell_angle_beta 90.000000
_cell_angle_gamma 120.000000
_cell_volume 1681.697215
_symmetry_space_group_name_H-M "P 65"
_symmetry_group_IT_number 170
_symmetry_cell_setting 'hexagonal'
loop_
_space_group_symop_operation_xyz
x,y,z
x-y,x,5/6+z
-y,x-y,2/3+z
-x,-y,1/2+z
-x+y,-x,1/3+z
y,-x+y,1/6+z
loop_
_atom_site_type_symbol
_atom_site_label
_atom_site_fract_x
_atom_site_fract_y
_atom_site_fract_z
Si Si1 0.797054 0.900077 0.390570
Si Si2 0.216646 0.070976 0.298554
Si Si3 0.460626 0.169249 0.920427
Si Si4 0.900948 0.345936 0.888715
Si Si5 0.621188 0.096463 0.562675
Si Si6 0.565922 0.678301 0.114497
Si Si7 0.331547 0.425346 0.479004
O O1 0.838861 0.869050 0.258908
O O2 0.818618 0.832060 0.505730
O O3 0.667426 0.861354 0.394827
O O4 0.174444 0.159652 0.257805
O O5 0.352928 0.122917 0.291525
O O6 0.530956 0.302914 0.909506
O O7 0.488996 0.123869 0.789131
O O8 0.467653 0.140987 0.070000
O O9 0.870285 0.440658 0.932954
O O10 0.033860 0.408473 0.859189
O O11 0.661428 0.065103 0.430164
O O12 0.495224 0.066494 0.543819
O O13 0.575087 0.796815 0.106350
O O14 0.655378 0.679449 0.013198
#
# Coordination Sequence:
#
# PCOD9580171 Si02
#       7
#     6   6   6   6   6   6   6
#     4  10  18  30  55  92 121 165 224 284 334 396
#     4  10  18  32  58  95 129 172 232 288 338 410
#     4  11  18  34  61  90 122 164 219 272 327 402
#     4  11  18  34  59  92 122 178 216 276 339 395
#     4  10  20  38  57  89 129 161 215 270 328 405
#     4  10  23  39  66  93 138 170 225 277 338 418
#     4  10  23  39  62  97 129 176 215 277 336 408
#
# _framework density 24.974769999999999
#
# number of rings (size 3 to 8) (size 9 to 14) (size 15 to 20)
#    0.000    1.714    5.714    0.000    2.000    2.286 
#    0.000    0.000    6.286   10.286    0.000    0.000 
#    0.000    0.000    0.000    0.000    0.000    0.000 
#
# Total GULP energy -234016.958638 kJ/mol
# GULP energy per Si atom -5571.832349 kJ/mol
# Density = 2.491793 g / cm^3
# Si number density = 24.974770 Si / 1000 Ang^3
#
#
#
# Elastic Constant Matrix: (Units=GPa)
#
#
# Indices 1 2 3 4 5 6 
#
# 1 100.8546 50.7238 35.6780 0.0000 0.0000 0.0000
# 2 50.7238 100.8546 35.6780 0.0000 0.0000 0.0000
# 3 35.6780 35.6780 66.5523 0.0000 0.0000 0.0000
# 4 0.0000 0.0000 0.0000 32.7947 0.0000 0.0000
# 5 0.0000 0.0000 0.0000 0.0000 32.7947 0.0000
# 6 0.0000 0.0000 0.0000 0.0000 0.0000 25.0654
#
#
#
# Elastic Compliance Matrix: (Units=1/GPa)
#
#
# Indices 1 2 3 4 5 6 
#
# 1 0.014386 -0.005562 -0.004731 0.000000 0.000000 0.000000
# 2 -0.005562 0.014386 -0.004731 0.000000 0.000000 0.000000
# 3 -0.004731 -0.004731 0.020098 0.000000 0.000000 0.000000
# 4 0.000000 0.000000 0.000000 0.030493 0.000000 0.000000
# 5 0.000000 0.000000 0.000000 0.000000 0.030493 0.000000
# 6 0.000000 0.000000 0.000000 0.000000 0.000000 0.039896
#
#
# Mechanical properties :
#
#
# Convention : Reuss Voigt Hill
#
# Bulk Modulus (GPa) = 53.12386 56.93564 55.02975
# Shear Modulus (GPa) = 26.87141 27.87640 27.37391
#
# Velocity S-wave (km/s) = 3.28371 3.34456 3.31427
# Velocity P-wave (km/s) = 5.97446 6.14504 6.06035
#
# Compressibility (1/GPa) = 0.01882393
#
# Stress axis : x y z
#
# Youngs Moduli (GPa) = 69.51207 69.51207 49.75678
#
# Poissons Ratio (x) = 0.38661 0.23538
# Poissons Ratio (y) = 0.38661 0.23538
# Poissons Ratio (z) = 0.32883 0.32883
#
# Static dielectric constant tensor:
#      x y z
#    x 2.061020 0.000000 0.000000 
#    y 0.000000 2.061020 0.000000 
#    z 0.000000 0.000000 2.008620 
# 
# From -- ./inp_files/957.got.cif
#   From: 2010.05.17/outbox.cif.g08.bks.cpg/sg170_cif.got.tgz:957.got - 2010.05.20 11:14:30.
