data_PCOD9580248
_publ_section_title
;
Structure prediction by ZEFSAII (Michael W. Deem and Ramdas Pophale) SiO2 
 PCOD9580248
Probable space group: P 65
;
_chemical_formula_sum "Si O2"
_cell_formula_units_Z 48
_cell_length_a 14.674668
_cell_length_b 14.674668
_cell_length_c 12.301903
_cell_angle_alpha 90.000000
_cell_angle_beta 90.000000
_cell_angle_gamma 120.000000
_cell_volume 2294.243443
_symmetry_space_group_name_H-M "P 65"
_symmetry_group_IT_number 170
_symmetry_cell_setting 'hexagonal'
loop_
_space_group_symop_operation_xyz
x,y,z
x-y,x,5/6+z
-y,x-y,2/3+z
-x,-y,1/2+z
-x+y,-x,1/3+z
y,-x+y,1/6+z
loop_
_atom_site_type_symbol
_atom_site_label
_atom_site_fract_x
_atom_site_fract_y
_atom_site_fract_z
Si Si1 0.797801 0.620886 0.505900
Si Si2 0.442377 0.389619 0.243129
Si Si3 0.571264 0.503556 0.422644
Si Si4 0.466802 0.719019 0.124457
Si Si5 0.359223 0.313629 0.745581
Si Si6 0.517634 0.919840 0.252556
Si Si7 0.012572 0.841575 0.211856
Si Si8 0.195426 0.697217 0.551384
O O1 0.907355 0.621064 0.503649
O O2 0.690714 0.531290 0.446708
O O3 0.819394 0.729607 0.454472
O O4 0.771602 0.591900 0.632752
O O5 0.482909 0.396762 0.365645
O O6 0.556526 0.440670 0.187370
O O7 0.385479 0.458515 0.245847
O O8 0.589387 0.599925 0.342900
O O9 0.510597 0.499169 0.533091
O O10 0.557819 0.711944 0.190720
O O11 0.476139 0.825283 0.170527
O O12 0.362340 0.610711 0.155985
O O13 0.486324 0.742373 0.996799
O O14 0.333779 0.369676 0.644492
O O15 0.261329 0.214946 0.801329
O O16 0.936442 0.856618 0.294595
#
# Coordination Sequence:
#
# PCOD9580248 Si02
#       8
#     6   6   6   6   6   6   6   6
#     4  11  25  40  73  97 136 187 230 276 366 416
#     4  11  23  42  61  94 139 181 227 291 338 407
#     4  10  20  42  62  92 142 178 223 291 329 414
#     4  12  24  42  65  98 143 195 233 286 358 413
#     4  10  22  42  67  98 132 182 233 283 348 416
#     4  11  21  39  63  92 141 179 228 286 331 403
#     4  11  25  50  76 102 132 172 233 301 367 434
#     4  12  26  43  63 101 145 182 243 290 337 435
#
# _framework density 20.921928999999999
#
# number of rings (size 3 to 8) (size 9 to 14) (size 15 to 20)
#    0.000    1.000    5.000    1.500    7.000    0.000 
#    4.500    2.500    0.000    0.000    0.000    0.000 
#    0.000    0.000    0.000    0.000    0.000    0.000 
#
# Total GULP energy -267266.298835 kJ/mol
# GULP energy per Si atom -5568.047892 kJ/mol
# Density = 2.087431 g / cm^3
# Si number density = 20.921929 Si / 1000 Ang^3
#
#
#
# Elastic Constant Matrix: (Units=GPa)
#
#
# Indices 1 2 3 4 5 6 
#
# 1 99.5656 -20.2212 39.0246 0.0000 0.0000 0.0000
# 2 -20.2212 99.5656 39.0246 0.0000 0.0000 0.0000
# 3 39.0246 39.0246 124.4381 0.0000 0.0000 0.0000
# 4 0.0000 0.0000 0.0000 46.7552 0.0000 0.0000
# 5 0.0000 0.0000 0.0000 0.0000 46.7552 0.0000
# 6 0.0000 0.0000 0.0000 0.0000 0.0000 59.8934
#
#
#
# Elastic Compliance Matrix: (Units=1/GPa)
#
#
# Indices 1 2 3 4 5 6 
#
# 1 0.013287 0.004939 -0.005716 0.000000 0.000000 0.000000
# 2 0.004939 0.013287 -0.005716 0.000000 0.000000 0.000000
# 3 -0.005716 -0.005716 0.011621 0.000000 0.000000 0.000000
# 4 0.000000 0.000000 0.000000 0.021388 0.000000 0.000000
# 5 0.000000 0.000000 0.000000 0.000000 0.021388 0.000000
# 6 0.000000 0.000000 0.000000 0.000000 0.000000 0.016696
#
#
# Mechanical properties :
#
#
# Convention : Reuss Voigt Hill
#
# Bulk Modulus (GPa) = 39.66735 48.80282 44.23509
# Shear Modulus (GPa) = 41.99714 48.39683 45.19698
#
# Velocity S-wave (km/s) = 4.48518 4.81480 4.65291
# Velocity P-wave (km/s) = 6.76929 7.36794 7.07495
#
# Compressibility (1/GPa) = 0.02520965
#
# Stress axis : x y z
#
# Youngs Moduli (GPa) = 75.26203 75.26203 86.05053
#
# Poissons Ratio (x) = -0.37170 0.49184
# Poissons Ratio (y) = -0.37170 0.49184
# Poissons Ratio (z) = 0.43017 0.43017
#
# Static dielectric constant tensor:
#      x y z
#    x 1.858910 0.000000 0.000000 
#    y 0.000000 1.858910 0.000000 
#    z 0.000000 0.000000 1.788570 
# 
# From -- ./inp_files/1086.got.cif
#   From: 2010.05.17/outbox.cif.g08.bks.cpg/sg170_cif.got.tgz:1086.got - 2010.05.20 11:14:30.
