data_PCOD9581709
_publ_section_title
;
Structure prediction by ZEFSAII (Michael W. Deem and Ramdas Pophale) SiO2 
 PCOD9581709
Probable space group: P 6/M
;
_chemical_formula_sum "Si O2"
_cell_formula_units_Z 72
_cell_length_a 24.815569
_cell_length_b 24.815569
_cell_length_c 7.730292
_cell_angle_alpha 90.000000
_cell_angle_beta 90.000000
_cell_angle_gamma 120.000000
_cell_volume 4122.636140
_symmetry_space_group_name_H-M "P 6/M"
_symmetry_group_IT_number 175
_symmetry_cell_setting 'hexagonal'
loop_
_space_group_symop_operation_xyz
x,y,z
x-y,x,z
-y,x-y,z
-x,-y,z
-x+y,-x,z
y,-x+y,z
-x,-y,-z
-x+y,-x,-z
y,-x+y,-z
x,y,-z
x-y,x,-z
-y,x-y,-z
loop_
_atom_site_type_symbol
_atom_site_label
_atom_site_fract_x
_atom_site_fract_y
_atom_site_fract_z
Si Si1 0.525132 0.595518 0.707619
Si Si2 0.595517 0.525133 0.292381
Si Si3 0.070171 0.807871 0.211386
Si Si4 0.595544 0.857752 0.792602
Si Si5 0.857752 0.595544 0.207398
Si Si6 0.070171 0.262300 0.211386
O O1 0.524201 0.591632 0.500000
O O2 0.456464 0.543536 0.769616
O O3 0.572764 0.572764 0.770542
O O4 0.549145 0.666556 0.750422
O O5 0.591631 0.524201 0.500000
O O6 0.666556 0.549146 0.249579
O O7 0.095073 0.761386 0.266775
O O8 0.122929 0.877071 0.264564
O O9 0.000000 0.782845 0.270648
O O10 0.069399 0.807578 0.000000
O O11 0.578072 0.789036 0.729166
O O12 0.598656 0.856589 0.000000
O O13 0.904927 0.666313 0.266776
O O14 0.856589 0.598656 0.000000
O O15 0.069398 0.261821 0.000000
#
# Coordination Sequence:
#
# PCOD9581709 Si02
#       6
#    12  12  12  12  12  12
#     4   9  18  31  45  63  88 115 141 170 207 254
#     4   9  18  31  45  63  88 115 141 170 207 254
#     4   8  13  21  34  53  77 104 133 166 203 240
#     4   9  17  28  43  64  86 108 139 177 213 251
#     4   9  17  28  43  64  86 108 139 177 213 251
#     4   8  13  21  34  53  77 104 133 166 203 240
#
# _framework density 17.464555000000001
#
# number of rings (size 3 to 8) (size 9 to 14) (size 15 to 20)
#    0.000    3.333    0.000    4.000    0.000    3.333 
#    0.000    1.667    0.000    1.000    0.000    2.333 
#    0.000    0.000    0.000    0.000    0.000    0.000 
#
# Total GULP energy -401031.682577 kJ/mol
# GULP energy per Si atom -5569.884480 kJ/mol
# Density = 1.742480 g / cm^3
# Si number density = 17.464555 Si / 1000 Ang^3
#
#
#
# Elastic Constant Matrix: (Units=GPa)
#
#
# Indices 1 2 3 4 5 6 
#
# 1 161.7217 110.3889 6.8297 0.0000 0.0000 0.0000
# 2 110.3889 161.7217 6.8297 0.0000 0.0000 0.0000
# 3 6.8297 6.8297 22.6794 0.0000 0.0000 0.0000
# 4 0.0000 0.0000 0.0000 -90.5257 0.0000 0.0000
# 5 0.0000 0.0000 0.0000 0.0000 -90.5257 0.0000
# 6 0.0000 0.0000 0.0000 0.0000 0.0000 25.6664
#
#
#
# Elastic Compliance Matrix: (Units=1/GPa)
#
#
# Indices 1 2 3 4 5 6 
#
# 1 0.011606 -0.007875 -0.001124 0.000000 0.000000 0.000000
# 2 -0.007875 0.011606 -0.001124 0.000000 0.000000 0.000000
# 3 -0.001124 -0.001124 0.044770 0.000000 0.000000 0.000000
# 4 0.000000 0.000000 0.000000 -0.011047 0.000000 0.000000
# 5 0.000000 0.000000 0.000000 0.000000 -0.011047 0.000000
# 6 0.000000 0.000000 0.000000 0.000000 0.000000 0.038961
#
#
# Mechanical properties :
#
#
# Convention : Reuss Voigt Hill
#
# Bulk Modulus (GPa) = 20.94780 66.02439 43.48610
# Shear Modulus (GPa) = 41.32006 -16.27205 12.52401
#
# Velocity S-wave (km/s) = 4.86937 -3.05572 2.68080
# Velocity P-wave (km/s) = 6.60567 5.04351 5.87673
#
# Compressibility (1/GPa) = 0.04773770
#
# Stress axis : x y z
#
# Youngs Moduli (GPa) = 86.16198 86.16198 22.33657
#
# Poissons Ratio (x) = 0.67850 0.02510
# Poissons Ratio (y) = 0.67850 0.02510
# Poissons Ratio (z) = 0.09682 0.09682
#
# Static dielectric constant tensor:
#      x y z
#    x 1.595850 0.000000 0.000000 
#    y 0.000000 1.595850 0.000000 
#    z 0.000000 0.000000 1.655650 
# 
# From -- ./inp_files/1230.got.cif
#   From: 2010.05.17/outbox.cif.g08.bks.cpg/sg175_1_cif.got.tgz:1230.got - 2010.05.20 11:23:22.
