data_PCOD9581562
_publ_section_title
;
Structure prediction by ZEFSAII (Michael W. Deem and Ramdas Pophale) SiO2 
 PCOD9581562
Probable space group: P 6/M
;
_chemical_formula_sum "Si O2"
_cell_formula_units_Z 40
_cell_length_a 16.931937
_cell_length_b 16.931937
_cell_length_c 8.382357
_cell_angle_alpha 90.000000
_cell_angle_beta 90.000000
_cell_angle_gamma 120.000000
_cell_volume 2081.182056
_symmetry_space_group_name_H-M "P 6/M"
_symmetry_group_IT_number 175
_symmetry_cell_setting 'hexagonal'
loop_
_space_group_symop_operation_xyz
x,y,z
x-y,x,z
-y,x-y,z
-x,-y,z
-x+y,-x,z
y,-x+y,z
-x,-y,-z
-x+y,-x,-z
y,-x+y,-z
x,y,-z
x-y,x,-z
-y,x-y,-z
loop_
_atom_site_type_symbol
_atom_site_label
_atom_site_fract_x
_atom_site_fract_y
_atom_site_fract_z
Si Si1 0.627031 0.700675 0.307271
Si Si2 0.333333 0.666667 0.690791
Si Si3 0.125210 0.739549 0.692185
Si Si4 0.433348 0.571824 0.811083
O O1 0.624525 0.701329 0.500000
O O2 0.626675 0.791218 0.248133
O O3 0.713125 0.690228 0.257770
O O4 0.535342 0.609760 0.251421
O O5 0.333334 0.666668 0.500000
O O6 0.412204 0.650839 0.757911
O O7 0.129336 0.744554 0.500000
O O8 0.132525 0.651260 0.739641
O O9 0.432267 0.562403 0.000000
#
# Coordination Sequence:
#
# PCOD9581562 Si02
#       4
#    12   4  12  12
#     4  10  21  37  57  79 107 147 189 227 271 327
#     4  12  22  35  55  78 112 155 187 219 262 323
#     4  10  21  37  57  79 107 147 189 227 271 327
#     4  12  23  35  54  83 114 146 182 227 273 317
#
# _framework density 19.219844999999999
#
# number of rings (size 3 to 8) (size 9 to 14) (size 15 to 20)
#    0.000    1.200    3.000    4.500    0.000    4.800 
#    0.000    0.000    0.000    0.600    0.000    4.200 
#    0.000    0.000    0.000    5.400    0.000    6.000 
#
# Total GULP energy -223324.148875 kJ/mol
# GULP energy per Si atom -5583.103722 kJ/mol
# Density = 1.917610 g / cm^3
# Si number density = 19.219845 Si / 1000 Ang^3
#
#
#
# Elastic Constant Matrix: (Units=GPa)
#
#
# Indices 1 2 3 4 5 6 
#
# 1 123.4279 64.4659 9.2036 0.0000 0.0000 -0.0001
# 2 64.4659 123.4280 9.2035 0.0000 0.0000 0.0000
# 3 9.2036 9.2035 7.9248 0.0000 0.0000 0.0000
# 4 0.0000 0.0000 0.0000 -14.5751 0.0001 0.0000
# 5 0.0000 0.0000 0.0000 0.0001 -14.5745 0.0000
# 6 -0.0001 0.0000 0.0000 0.0000 0.0000 29.4809
#
#
#
# Elastic Compliance Matrix: (Units=1/GPa)
#
#
# Indices 1 2 3 4 5 6 
#
# 1 0.011483 -0.005477 -0.006975 0.000000 0.000000 0.000000
# 2 -0.005477 0.011483 -0.006974 0.000000 0.000000 0.000000
# 3 -0.006975 -0.006974 0.142386 0.000000 0.000000 0.000000
# 4 0.000000 0.000000 0.000000 -0.068610 -0.000001 0.000000
# 5 0.000000 0.000000 0.000000 -0.000001 -0.068613 0.000000
# 6 0.000000 0.000000 0.000000 0.000000 0.000000 0.033920
#
#
# Mechanical properties :
#
#
# Convention : Reuss Voigt Hill
#
# Bulk Modulus (GPa) = 7.90519 46.72521 27.31520
# Shear Modulus (GPa) = 34.94843 11.52677 23.23760
#
# Velocity S-wave (km/s) = 4.26884 2.45160 3.48090
# Velocity P-wave (km/s) = 5.33097 5.69012 5.51347
#
# Compressibility (1/GPa) = 0.12649919
#
# Stress axis : x y z
#
# Youngs Moduli (GPa) = 87.08712 87.08737 7.02315
#
# Poissons Ratio (x) = 0.47701 0.04898
# Poissons Ratio (y) = 0.47700 0.04898
# Poissons Ratio (z) = 0.60740 0.60738
#
# Static dielectric constant tensor:
#      x y z
#    x 1.683960 0.000000 0.000000 
#    y 0.000000 1.683960 0.000000 
#    z 0.000000 0.000000 1.636140 
# 
# From -- ./inp_files/429.got.cif
#   From: 2010.05.17/outbox.cif.g08.bks.cpg/sg175_1_cif.got.tgz:429.got - 2010.05.20 11:23:22.
