data_PCOD9581779
_publ_section_title
;
Structure prediction by ZEFSAII (Michael W. Deem and Ramdas Pophale) SiO2 
 PCOD9581779
Probable space group: P 63/M
;
_chemical_formula_sum "Si O2"
_cell_formula_units_Z 42
_cell_length_a 11.766022
_cell_length_b 11.766022
_cell_length_c 17.373612
_cell_angle_alpha 90.000000
_cell_angle_beta 90.000000
_cell_angle_gamma 120.000000
_cell_volume 2082.955837
_symmetry_space_group_name_H-M "P 63/M"
_symmetry_group_IT_number 176
_symmetry_cell_setting 'hexagonal'
loop_
_space_group_symop_operation_xyz
x,y,z
x-y,x,1/2+z
-y,x-y,z
-x,-y,1/2+z
-x+y,-x,z
y,-x+y,1/2+z
-x,-y,-z
-x+y,-x,1/2-z
y,-x+y,-z
x,y,1/2-z
x-y,x,-z
-y,x-y,1/2-z
loop_
_atom_site_type_symbol
_atom_site_label
_atom_site_fract_x
_atom_site_fract_y
_atom_site_fract_z
Si Si1 0.289283 0.898276 0.041015
Si Si2 0.487490 0.814789 0.250000
Si Si3 0.838807 0.865946 0.161854
Si Si4 0.926437 0.367897 0.913401
O O1 0.202008 0.741730 0.042046
O O2 0.431357 0.940949 0.076006
O O3 0.215021 0.951180 0.095626
O O4 0.318352 0.955484 0.955246
O O5 0.337520 0.790066 0.250000
O O6 0.563398 0.892085 0.325128
O O7 0.790569 0.825634 0.250000
O O8 0.891049 0.022333 0.154492
#
# Coordination Sequence:
#
# PCOD9581779 Si02
#       4
#    12   6  12  12
#     4  11  23  40  62  97 137 176 226 277 345 401
#     4  10  18  40  68  90 126 170 232 288 330 402
#     4   8  19  39  64  99 134 172 221 282 348 405
#     4  11  24  38  63  98 133 179 222 283 336 406
#
# _framework density 20.163654999999999
#
# number of rings (size 3 to 8) (size 9 to 14) (size 15 to 20)
#    0.857    1.143    2.857    0.571    8.000    0.000 
#    0.000    1.429    0.000    0.000    0.000    0.000 
#    0.000    0.000    0.000    0.000    0.000    0.000 
#
# Total GULP energy -234231.861154 kJ/mol
# GULP energy per Si atom -5576.949075 kJ/mol
# Density = 2.011776 g / cm^3
# Si number density = 20.163655 Si / 1000 Ang^3
#
#
#
# Elastic Constant Matrix: (Units=GPa)
#
#
# Indices 1 2 3 4 5 6 
#
# 1 86.4143 25.4404 63.1155 0.0000 0.0000 0.0000
# 2 25.4404 86.4143 63.1155 0.0000 0.0000 0.0000
# 3 63.1155 63.1155 149.6142 0.0000 0.0000 0.0000
# 4 0.0000 0.0000 0.0000 28.5613 0.0000 0.0000
# 5 0.0000 0.0000 0.0000 0.0000 28.5613 0.0000
# 6 0.0000 0.0000 0.0000 0.0000 0.0000 30.4870
#
#
#
# Elastic Compliance Matrix: (Units=1/GPa)
#
#
# Indices 1 2 3 4 5 6 
#
# 1 0.016732 0.000332 -0.007198 0.000000 0.000000 0.000000
# 2 0.000332 0.016732 -0.007198 0.000000 0.000000 0.000000
# 3 -0.007198 -0.007198 0.012757 0.000000 0.000000 0.000000
# 4 0.000000 0.000000 0.000000 0.035012 0.000000 0.000000
# 5 0.000000 0.000000 0.000000 0.000000 0.035012 0.000000
# 6 0.000000 0.000000 0.000000 0.000000 0.000000 0.032801
#
#
# Mechanical properties :
#
#
# Convention : Reuss Voigt Hill
#
# Bulk Modulus (GPa) = 55.27586 69.53171 62.40379
# Shear Modulus (GPa) = 27.29140 28.90670 28.09905
#
# Velocity S-wave (km/s) = 3.68298 3.79040 3.73708
# Velocity P-wave (km/s) = 6.74973 7.32904 7.04534
#
# Compressibility (1/GPa) = 0.01809108
#
# Stress axis : x y z
#
# Youngs Moduli (GPa) = 59.76528 59.76528 78.38680
#
# Poissons Ratio (x) = -0.01982 0.56426
# Poissons Ratio (y) = -0.01982 0.56426
# Poissons Ratio (z) = 0.43022 0.43022
#
# Static dielectric constant tensor:
#      x y z
#    x 1.752870 0.000000 0.000000 
#    y 0.000000 1.752870 0.000000 
#    z 0.000000 0.000000 1.723230 
# 
# From -- ./inp_files/3175.got.cif
#   From: 2010.05.17/outbox.cif.g08.bks.cpg/sg176_2_cif.got.tgz:3175.got - 2010.06.03 11:36:45.
