data_PCOD9581183
_publ_section_title
;
Structure prediction by ZEFSAII (Michael W. Deem and Ramdas Pophale) SiO2 
 PCOD9581183
Probable space group: P -6
;
_chemical_formula_sum "Si O2"
_cell_formula_units_Z 32
_cell_length_a 14.816472
_cell_length_b 14.816472
_cell_length_c 7.828046
_cell_angle_alpha 90.000000
_cell_angle_beta 90.000000
_cell_angle_gamma 120.000000
_cell_volume 1488.242183
_symmetry_space_group_name_H-M "P -6"
_symmetry_group_IT_number 174
_symmetry_cell_setting 'hexagonal'
loop_
_space_group_symop_operation_xyz
x,y,z
-x+y,-x,-z
-y,x-y,z
x,y,-z
-x+y,-x,z
-y,x-y,-z
loop_
_atom_site_type_symbol
_atom_site_label
_atom_site_fract_x
_atom_site_fract_y
_atom_site_fract_z
Si Si1 0.654910 0.535898 0.705697
Si Si2 0.163514 0.227031 0.290948
Si Si3 0.830456 0.763959 0.291020
Si Si4 0.111456 0.497078 0.808206
Si Si5 0.666666 0.333333 0.290303
Si Si6 0.170708 0.715441 0.304683
O O1 0.659337 0.534622 0.500000
O O2 0.753608 0.645440 0.764808
O O3 0.554761 0.546096 0.753394
O O4 0.655948 0.432638 0.765284
O O5 0.162055 0.227354 0.500000
O O6 0.190845 0.140124 0.236730
O O7 0.252095 0.341344 0.237926
O O8 0.050984 0.206770 0.234959
O O9 0.828967 0.763062 0.500000
O O10 0.166806 0.621360 0.797221
O O11 0.179977 0.462585 0.698332
O O12 0.114312 0.463216 0.000000
O O13 0.666667 0.333334 0.500000
O O14 0.144819 0.678513 0.500000
#
# Coordination Sequence:
#
# PCOD9581183 Si02
#       6
#     6   6   6   6   2   6
#     4  10  20  38  61  88 119 158 208 262 311 359
#     4   9  17  29  53  89 120 147 182 238 301 355
#     4   9  16  29  52  87 123 148 185 241 304 360
#     4  12  25  41  60  87 124 163 199 245 305 374
#     4   9  21  36  61  92 118 156 217 281 313 342
#     4  11  22  39  63  91 118 152 199 249 302 358
#
# _framework density 21.501877
#
# number of rings (size 3 to 8) (size 9 to 14) (size 15 to 20)
#    0.000    1.875    1.875    3.000    2.625    1.500 
#    0.000    0.938    0.000    0.000    0.000    0.000 
#    0.000    0.000    0.000    0.000    0.000    0.000 
#
# Total GULP energy -178771.228825 kJ/mol
# GULP energy per Si atom -5586.600901 kJ/mol
# Density = 2.145294 g / cm^3
# Si number density = 21.501877 Si / 1000 Ang^3
#
#
#
# Elastic Constant Matrix: (Units=GPa)
#
#
# Indices 1 2 3 4 5 6 
#
# 1 110.2186 30.3559 4.8704 0.0000 0.0000 0.0000
# 2 30.3559 110.2185 4.8705 0.0000 0.0000 -0.0001
# 3 4.8704 4.8705 33.7686 0.0000 0.0000 0.0000
# 4 0.0000 0.0000 0.0000 -18.6610 0.0001 0.0000
# 5 0.0000 0.0000 0.0000 0.0001 -18.6611 0.0000
# 6 0.0000 -0.0001 0.0000 0.0000 0.0000 39.9315
#
#
#
# Elastic Compliance Matrix: (Units=1/GPa)
#
#
# Indices 1 2 3 4 5 6 
#
# 1 0.009853 -0.002668 -0.001036 0.000000 0.000000 0.000000
# 2 -0.002668 0.009853 -0.001036 0.000000 0.000000 0.000000
# 3 -0.001036 -0.001036 0.029912 0.000000 0.000000 0.000000
# 4 0.000000 0.000000 0.000000 -0.053588 0.000000 0.000000
# 5 0.000000 0.000000 0.000000 0.000000 -0.053587 0.000000
# 6 0.000000 0.000000 0.000000 0.000000 0.000000 0.025043
#
#
# Mechanical properties :
#
#
# Convention : Reuss Voigt Hill
#
# Bulk Modulus (GPa) = 24.91420 37.15547 31.03483
# Shear Modulus (GPa) = -518.00324 14.79582 -251.60371
#
# Velocity S-wave (km/s) = -15.53814 2.62605 -10.82907
# Velocity P-wave (km/s) = 17.61532 5.14902 11.91191
#
# Compressibility (1/GPa) = 0.04013776
#
# Stress axis : x y z
#
# Youngs Moduli (GPa) = 101.48697 101.48689 33.43113
#
# Poissons Ratio (x) = 0.27077 0.03465
# Poissons Ratio (y) = 0.27077 0.03465
# Poissons Ratio (z) = 0.10518 0.10518
#
# Static dielectric constant tensor:
#      x y z
#    x 1.749080 0.000000 0.000000 
#    y 0.000000 1.749080 0.000000 
#    z 0.000000 0.000000 1.796770 
# 
# From -- ./inp_files/306.got.cif
#   From: 2010.05.17/outbox.cif.g08.bks.cpg/sg174_cif.got.tgz:306.got - 2010.05.20 11:22:48.
