data_PCOD9581616
_publ_section_title
;
Structure prediction by ZEFSAII (Michael W. Deem and Ramdas Pophale) SiO2 
 PCOD9581616
Probable space group: P 6/M
;
_chemical_formula_sum "Si O2"
_cell_formula_units_Z 52
_cell_length_a 9.462144
_cell_length_b 9.462144
_cell_length_c 26.856676
_cell_angle_alpha 90.000000
_cell_angle_beta 90.000000
_cell_angle_gamma 120.000000
_cell_volume 2082.389656
_symmetry_space_group_name_H-M "P 6/M"
_symmetry_group_IT_number 175
_symmetry_cell_setting 'hexagonal'
loop_
_space_group_symop_operation_xyz
x,y,z
x-y,x,z
-y,x-y,z
-x,-y,z
-x+y,-x,z
y,-x+y,z
-x,-y,-z
-x+y,-x,-z
y,-x+y,-z
x,y,-z
x-y,x,-z
-y,x-y,-z
loop_
_atom_site_type_symbol
_atom_site_label
_atom_site_fract_x
_atom_site_fract_y
_atom_site_fract_z
Si Si1 0.119749 0.380488 0.874028
Si Si2 0.737743 0.118956 0.234389
Si Si3 0.118978 0.382605 0.553153
Si Si4 0.333334 0.666667 0.058907
Si Si5 0.736384 0.119074 0.659455
O O1 0.237875 0.304104 0.877139
O O2 0.143609 0.463797 0.819312
O O3 0.175584 0.512842 0.917192
O O4 0.673527 0.144757 0.287348
O O5 0.932007 0.236400 0.234486
O O6 0.237237 0.305959 0.553152
O O7 0.144542 0.471230 0.500000
O O8 0.144589 0.471289 0.606301
O O9 0.333334 0.666668 0.000000
O O10 0.931319 0.237367 0.659427
#
# Coordination Sequence:
#
# PCOD9581616 Si02
#       5
#    12  12  12   4  12
#     4  10  21  39  64  92 121 155 197 243 288 338
#     4   8  13  22  39  64  92 123 163 214 269 320
#     4   8  11  12  14  24  49  91 142 191 238 293
#     4  12  27  45  63  87 123 162 193 227 283 348
#     4   8  11  14  22  39  66 102 146 197 251 305
#
# _framework density 24.971314
#
# number of rings (size 3 to 8) (size 9 to 14) (size 15 to 20)
#    0.000    3.231    0.000    1.615    0.000    8.308 
#    0.000    0.000    0.000    1.385    0.000    0.000 
#    0.000    0.000    0.000    2.077    0.000   59.077 
#
# Total GULP energy -290502.315967 kJ/mol
# GULP energy per Si atom -5586.582999 kJ/mol
# Density = 2.491448 g / cm^3
# Si number density = 24.971314 Si / 1000 Ang^3
#
#
#
# Elastic Constant Matrix: (Units=GPa)
#
#
# Indices 1 2 3 4 5 6 
#
# 1 125.3598 38.7566 34.3757 0.0000 0.0000 -0.0001
# 2 38.7566 125.3595 34.3759 0.0000 0.0000 -0.0003
# 3 34.3757 34.3759 311.9388 0.0000 0.0000 -0.0004
# 4 0.0000 0.0000 0.0000 42.8337 -0.0004 0.0000
# 5 0.0000 0.0000 0.0000 -0.0004 42.8336 0.0000
# 6 -0.0001 -0.0003 -0.0004 0.0000 0.0000 43.3015
#
#
#
# Elastic Compliance Matrix: (Units=1/GPa)
#
#
# Indices 1 2 3 4 5 6 
#
# 1 0.008968 -0.002579 -0.000704 0.000000 0.000000 0.000000
# 2 -0.002579 0.008968 -0.000704 0.000000 0.000000 0.000000
# 3 -0.000704 -0.000704 0.003361 0.000000 0.000000 0.000000
# 4 0.000000 0.000000 0.000000 0.023346 0.000000 0.000000
# 5 0.000000 0.000000 0.000000 0.000000 0.023346 0.000000
# 6 0.000000 0.000000 0.000000 0.000000 0.000000 0.023094
#
#
# Mechanical properties :
#
#
# Convention : Reuss Voigt Hill
#
# Bulk Modulus (GPa) = 75.06771 86.40830 80.73801
# Shear Modulus (GPa) = 48.31047 56.13711 52.22379
#
# Velocity S-wave (km/s) = 4.40322 4.74652 4.57809
# Velocity P-wave (km/s) = 7.48185 8.04471 7.76838
#
# Compressibility (1/GPa) = 0.01332131
#
# Stress axis : x y z
#
# Youngs Moduli (GPa) = 111.51343 111.51314 297.53807
#
# Poissons Ratio (x) = 0.28764 0.20946
# Poissons Ratio (y) = 0.28764 0.20946
# Poissons Ratio (z) = 0.07850 0.07850
#
# Static dielectric constant tensor:
#      x y z
#    x 1.134370 0.000070 0.000000 
#    y 0.000070 1.134190 0.000000 
#    z 0.000000 0.000000 2.038700 
# 
# From -- ./inp_files/3350.got.cif
#   From: 2010.05.17/outbox.cif.g08.bks.cpg/sg175_2_cif.got.tgz:3350.got - 2010.05.20 11:23:22.
