data_PCOD9581300
_publ_section_title
;
Structure prediction by ZEFSAII (Michael W. Deem and Ramdas Pophale) SiO2 
 PCOD9581300
Probable space group: P 6/M
;
_chemical_formula_sum "Si O2"
_cell_formula_units_Z 84
_cell_length_a 20.374506
_cell_length_b 20.374506
_cell_length_c 14.464644
_cell_angle_alpha 90.000000
_cell_angle_beta 90.000000
_cell_angle_gamma 120.000000
_cell_volume 5200.110309
_symmetry_space_group_name_H-M "P 6/M"
_symmetry_group_IT_number 175
_symmetry_cell_setting 'hexagonal'
loop_
_space_group_symop_operation_xyz
x,y,z
x-y,x,z
-y,x-y,z
-x,-y,z
-x+y,-x,z
y,-x+y,z
-x,-y,-z
-x+y,-x,-z
y,-x+y,-z
x,y,-z
x-y,x,-z
-y,x-y,-z
loop_
_atom_site_type_symbol
_atom_site_label
_atom_site_fract_x
_atom_site_fract_y
_atom_site_fract_z
Si Si1 0.680586 0.560498 0.708164
Si Si2 0.566758 0.086290 0.709622
Si Si3 0.625678 0.662441 0.392425
Si Si4 0.363093 0.832701 0.895689
Si Si5 0.696350 0.503304 0.102952
Si Si6 0.657656 0.828011 0.390226
Si Si7 0.173602 0.064217 0.612568
O O1 0.608675 0.477923 0.684111
O O2 0.658943 0.622178 0.672361
O O3 0.690083 0.554266 0.817431
O O4 0.760883 0.587273 0.660474
O O5 0.621550 0.085082 0.631566
O O6 0.610477 0.113022 0.806933
O O7 0.500000 0.000000 0.721890
O O8 0.637519 0.650739 0.500000
O O9 0.660409 0.751258 0.375849
O O10 0.420670 0.799772 0.893617
O O11 0.276383 0.767898 0.883561
O O12 0.371068 0.865713 0.000000
O O13 0.700349 0.534099 0.000000
O O14 0.649766 0.835204 0.500000
O O15 0.738592 0.898132 0.359545
O O16 0.141152 0.118900 0.641881
O O17 0.173669 0.064077 0.500000
#
# Coordination Sequence:
#
# PCOD9581300 Si02
#       7
#    12  12  12  12  12  12  12
#     4  10  19  31  48  66  89 119 152 190 231 275
#     4   9  19  31  44  65  88 117 155 191 229 274
#     4  10  20  33  47  65  91 122 158 197 234 275
#     4   9  16  28  46  67  91 115 142 179 226 276
#     4   9  17  29  47  70  93 118 148 185 230 283
#     4  10  19  30  46  67  90 119 159 199 233 277
#     4   9  16  26  41  63  91 120 149 184 231 287
#
# _framework density 16.153503000000001
#
# number of rings (size 3 to 8) (size 9 to 14) (size 15 to 20)
#    0.000    2.571    0.000    2.571    0.000    7.429 
#    0.000    2.143    0.000    1.429    0.000    0.000 
#    0.000    0.000    0.000    0.286    0.000    5.286 
#
# Total GULP energy -467693.587309 kJ/mol
# GULP energy per Si atom -5567.780801 kJ/mol
# Density = 1.611674 g / cm^3
# Si number density = 16.153503 Si / 1000 Ang^3
#
#
#
# Elastic Constant Matrix: (Units=GPa)
#
#
# Indices 1 2 3 4 5 6 
#
# 1 49.4263 14.2692 32.7193 0.0000 0.0000 0.0000
# 2 14.2692 49.4263 32.7193 0.0000 0.0000 0.0000
# 3 32.7193 32.7193 59.9963 0.0000 0.0000 0.0000
# 4 0.0000 0.0000 0.0000 23.0016 0.0000 0.0000
# 5 0.0000 0.0000 0.0000 0.0000 23.0016 0.0000
# 6 0.0000 0.0000 0.0000 0.0000 0.0000 17.5786
#
#
#
# Elastic Compliance Matrix: (Units=1/GPa)
#
#
# Indices 1 2 3 4 5 6 
#
# 1 0.032074 0.003630 -0.019471 0.000000 0.000000 0.000000
# 2 0.003630 0.032074 -0.019471 0.000000 0.000000 0.000000
# 3 -0.019471 -0.019471 0.037905 0.000000 0.000000 0.000000
# 4 0.000000 0.000000 0.000000 0.043475 0.000000 0.000000
# 5 0.000000 0.000000 0.000000 0.000000 0.043475 0.000000
# 6 0.000000 0.000000 0.000000 0.000000 0.000000 0.056888
#
#
# Mechanical properties :
#
#
# Convention : Reuss Voigt Hill
#
# Bulk Modulus (GPa) = 31.81900 35.36276 33.59088
# Shear Modulus (GPa) = 15.29089 17.99240 16.64165
#
# Velocity S-wave (km/s) = 3.08002 3.34104 3.21318
# Velocity P-wave (km/s) = 5.69117 6.06817 5.88269
#
# Compressibility (1/GPa) = 0.03142776
#
# Stress axis : x y z
#
# Youngs Moduli (GPa) = 31.17809 31.17809 26.38157
#
# Poissons Ratio (x) = -0.11318 0.51368
# Poissons Ratio (y) = -0.11318 0.51368
# Poissons Ratio (z) = 0.60708 0.60708
#
# Static dielectric constant tensor:
#      x y z
#    x 1.564050 0.000000 0.000000 
#    y 0.000000 1.564050 0.000000 
#    z 0.000000 0.000000 1.531420 
# 
# From -- ./inp_files/1980.got.cif
#   From: 2010.05.17/outbox.cif.g08.bks.cpg/sg175_1_cif.got.tgz:1980.got - 2010.05.20 11:23:22.
