data_PCOD9581509
_publ_section_title
;
Structure prediction by ZEFSAII (Michael W. Deem and Ramdas Pophale) SiO2 
 PCOD9581509
Probable space group: P 6/M
;
_chemical_formula_sum "Si O2"
_cell_formula_units_Z 52
_cell_length_a 15.439503
_cell_length_b 15.439503
_cell_length_c 13.315274
_cell_angle_alpha 90.000000
_cell_angle_beta 90.000000
_cell_angle_gamma 120.000000
_cell_volume 2748.826771
_symmetry_space_group_name_H-M "P 6/M"
_symmetry_group_IT_number 175
_symmetry_cell_setting 'hexagonal'
loop_
_space_group_symop_operation_xyz
x,y,z
x-y,x,z
-y,x-y,z
-x,-y,z
-x+y,-x,z
y,-x+y,z
-x,-y,-z
-x+y,-x,-z
y,-x+y,-z
x,y,-z
x-y,x,-z
-y,x-y,-z
loop_
_atom_site_type_symbol
_atom_site_label
_atom_site_fract_x
_atom_site_fract_y
_atom_site_fract_z
Si Si1 0.367257 0.250876 0.802643
Si Si2 0.666667 0.333333 0.380847
Si Si3 0.860523 0.098059 0.388169
Si Si4 0.886970 0.443451 0.285340
Si Si5 0.088491 0.687638 0.112583
O O1 0.312925 0.186901 0.703611
O O2 0.469729 0.343791 0.764789
O O3 0.386469 0.183424 0.878838
O O4 0.307049 0.298237 0.854407
O O5 0.666667 0.333334 0.500000
O O6 0.782458 0.376034 0.344566
O O7 0.832437 0.117831 0.500000
O O8 0.980059 0.159962 0.381746
O O9 0.896208 0.378271 0.196240
O O10 0.000000 0.500000 0.335720
O O11 0.076089 0.646843 0.000000
#
# Coordination Sequence:
#
# PCOD9581509 Si02
#       5
#    12   4  12  12  12
#     4  11  21  39  62  91 127 157 207 259 310 374
#     4  12  24  45  70  95 130 171 210 258 331 389
#     4  10  20  36  62  92 126 167 205 249 301 360
#     4  10  24  44  63  93 126 158 213 263 309 378
#     4  11  23  40  64  89 124 166 208 258 316 372
#
# _framework density 18.917162000000001
#
# number of rings (size 3 to 8) (size 9 to 14) (size 15 to 20)
#    0.000    1.385    4.615    0.923    0.000    7.385 
#    0.000    3.462    0.000    0.000    0.000    3.231 
#    0.000    0.000    0.000    0.000    0.000    0.000 
#
# Total GULP energy -290050.281236 kJ/mol
# GULP energy per Si atom -5577.890024 kJ/mol
# Density = 1.887411 g / cm^3
# Si number density = 18.917162 Si / 1000 Ang^3
#
#
#
# Elastic Constant Matrix: (Units=GPa)
#
#
# Indices 1 2 3 4 5 6 
#
# 1 75.0002 13.1557 26.5236 0.0000 0.0000 0.0001
# 2 13.1557 74.9998 26.5236 0.0000 0.0000 -0.0001
# 3 26.5236 26.5236 108.6780 0.0000 0.0000 -0.0001
# 4 0.0000 0.0000 0.0000 8.8478 0.0000 0.0000
# 5 0.0000 0.0000 0.0000 0.0000 8.8480 0.0000
# 6 0.0001 -0.0001 -0.0001 0.0000 0.0000 30.9221
#
#
#
# Elastic Compliance Matrix: (Units=1/GPa)
#
#
# Indices 1 2 3 4 5 6 
#
# 1 0.014733 -0.001437 -0.003245 0.000000 0.000000 0.000000
# 2 -0.001437 0.014733 -0.003245 0.000000 0.000000 0.000000
# 3 -0.003245 -0.003245 0.010785 0.000000 0.000000 0.000000
# 4 0.000000 0.000000 0.000000 0.113022 0.000000 0.000000
# 5 0.000000 0.000000 0.000000 0.000000 0.113020 0.000000
# 6 0.000000 0.000000 0.000000 0.000000 0.000000 0.032339
#
#
# Mechanical properties :
#
#
# Convention : Reuss Voigt Hill
#
# Bulk Modulus (GPa) = 40.98735 43.45377 42.22056
# Shear Modulus (GPa) = 15.49816 22.55527 19.02671
#
# Velocity S-wave (km/s) = 2.86538 3.45674 3.17486
# Velocity P-wave (km/s) = 5.71498 6.24119 5.98388
#
# Compressibility (1/GPa) = 0.02439777
#
# Stress axis : x y z
#
# Youngs Moduli (GPa) = 67.87535 67.87494 92.71766
#
# Poissons Ratio (x) = 0.09752 0.30087
# Poissons Ratio (y) = 0.09752 0.30087
# Poissons Ratio (z) = 0.22026 0.22026
#
# Static dielectric constant tensor:
#      x y z
#    x 1.665990 0.000000 0.000000 
#    y 0.000000 1.665990 0.000000 
#    z 0.000000 0.000000 1.645160 
# 
# From -- ./inp_files/2307.got.cif
#   From: 2010.05.17/outbox.cif.g08.bks.cpg/sg175_2_cif.got.tgz:2307.got - 2010.05.20 11:23:22.
