data_PCOD9581392
_publ_section_title
;
Structure prediction by ZEFSAII (Michael W. Deem and Ramdas Pophale) SiO2 
 PCOD9581392
Probable space group: P 6/M
;
_chemical_formula_sum "Si O2"
_cell_formula_units_Z 46
_cell_length_a 18.232532
_cell_length_b 18.232532
_cell_length_c 9.434650
_cell_angle_alpha 90.000000
_cell_angle_beta 90.000000
_cell_angle_gamma 120.000000
_cell_volume 2716.129011
_symmetry_space_group_name_H-M "P 6/M"
_symmetry_group_IT_number 175
_symmetry_cell_setting 'hexagonal'
loop_
_space_group_symop_operation_xyz
x,y,z
x-y,x,z
-y,x-y,z
-x,-y,z
-x+y,-x,z
y,-x+y,z
-x,-y,-z
-x+y,-x,-z
y,-x+y,-z
x,y,-z
x-y,x,-z
-y,x-y,-z
loop_
_atom_site_type_symbol
_atom_site_label
_atom_site_fract_x
_atom_site_fract_y
_atom_site_fract_z
Si Si1 0.333334 0.666668 0.672372
Si Si2 0.262016 0.355533 0.839534
Si Si3 0.570187 0.595181 0.332952
Si Si4 0.741626 0.216583 0.332370
Si Si5 0.193095 0.045366 0.000000
O O1 0.333334 0.666668 0.500000
O O2 0.281354 0.712589 0.715574
O O3 0.345156 0.371321 0.757496
O O4 0.222432 0.403461 0.755319
O O5 0.284909 0.390782 0.000000
O O6 0.195171 0.256457 0.867497
O O7 0.500000 0.500000 0.292124
O O8 0.589385 0.593242 0.500000
O O9 0.533784 0.658663 0.316732
O O10 0.763288 0.229704 0.500000
O O11 0.164103 0.114903 0.000000
#
# Coordination Sequence:
#
# PCOD9581392 Si02
#       5
#     4  12  12  12   6
#     4   9  18  33  55  80 109 150 190 227 265 318
#     4  10  22  35  55  79 113 146 180 232 278 335
#     4  10  20  35  57  83 111 147 189 230 277 330
#     4  10  19  34  56  80 110 144 187 231 272 330
#     4  10  21  38  59  80 104 138 178 226 278 342
#
# _framework density 16.935869
#
# number of rings (size 3 to 8) (size 9 to 14) (size 15 to 20)
#    0.783    1.304    0.000    4.043    0.000    4.696 
#    0.000    3.913    0.000    0.000    0.000    0.000 
#    0.000   12.522    0.000    0.000    0.000    0.000 
#
# Total GULP energy -256447.973154 kJ/mol
# GULP energy per Si atom -5574.955938 kJ/mol
# Density = 1.689732 g / cm^3
# Si number density = 16.935869 Si / 1000 Ang^3
#
#
#
# Elastic Constant Matrix: (Units=GPa)
#
#
# Indices 1 2 3 4 5 6 
#
# 1 124.9394 58.5967 43.5044 0.0000 0.0000 0.0017
# 2 58.5967 124.9391 43.5048 0.0000 0.0000 0.0013
# 3 43.5044 43.5048 53.2598 0.0000 0.0000 0.0008
# 4 0.0000 0.0000 0.0000 26.2961 -0.0005 0.0000
# 5 0.0000 0.0000 0.0000 -0.0005 26.2961 0.0000
# 6 0.0017 0.0013 0.0008 0.0000 0.0000 33.1720
#
#
#
# Elastic Compliance Matrix: (Units=1/GPa)
#
#
# Indices 1 2 3 4 5 6 
#
# 1 0.011982 -0.003091 -0.007263 0.000000 0.000000 0.000000
# 2 -0.003091 0.011983 -0.007263 0.000000 0.000000 0.000000
# 3 -0.007263 -0.007263 0.030642 0.000000 0.000000 0.000000
# 4 0.000000 0.000000 0.000000 0.038028 0.000001 0.000000
# 5 0.000000 0.000000 0.000000 0.000001 0.038028 0.000000
# 6 0.000000 0.000000 0.000000 0.000000 0.000000 0.030146
#
#
# Mechanical properties :
#
#
# Convention : Reuss Voigt Hill
#
# Bulk Modulus (GPa) = 51.61953 66.03890 58.82922
# Shear Modulus (GPa) = 24.69125 27.65500 26.17313
#
# Velocity S-wave (km/s) = 3.82242 4.04533 3.93546
# Velocity P-wave (km/s) = 7.07296 7.80370 7.44730
#
# Compressibility (1/GPa) = 0.01937251
#
# Stress axis : x y z
#
# Youngs Moduli (GPa) = 83.45529 83.45447 32.63548
#
# Poissons Ratio (x) = 0.25794 0.23703
# Poissons Ratio (y) = 0.25794 0.23704
# Poissons Ratio (z) = 0.60614 0.60615
#
# Static dielectric constant tensor:
#      x y z
#    x 1.558610 0.000000 0.000000 
#    y 0.000000 1.558620 0.000000 
#    z 0.000000 0.000000 1.563150 
# 
# From -- ./inp_files/596.got.cif
#   From: 2010.05.17/outbox.cif.g08.bks.cpg/sg175_1_cif.got.tgz:596.got - 2010.05.20 11:23:22.
