data_PCOD9581544
_publ_section_title
;
Structure prediction by ZEFSAII (Michael W. Deem and Ramdas Pophale) SiO2 
 PCOD9581544
Probable space group: P 6/M
;
_chemical_formula_sum "Si O2"
_cell_formula_units_Z 30
_cell_length_a 11.115927
_cell_length_b 11.115927
_cell_length_c 13.699022
_cell_angle_alpha 90.000000
_cell_angle_beta 90.000000
_cell_angle_gamma 120.000000
_cell_volume 1465.924377
_symmetry_space_group_name_H-M "P 6/M"
_symmetry_group_IT_number 175
_symmetry_cell_setting 'hexagonal'
loop_
_space_group_symop_operation_xyz
x,y,z
x-y,x,z
-y,x-y,z
-x,-y,z
-x+y,-x,z
y,-x+y,z
-x,-y,-z
-x+y,-x,-z
y,-x+y,-z
x,y,-z
x-y,x,-z
-y,x-y,-z
loop_
_atom_site_type_symbol
_atom_site_label
_atom_site_fract_x
_atom_site_fract_y
_atom_site_fract_z
Si Si1 0.173560 0.664872 0.712960
Si Si2 0.252516 0.312481 0.890961
Si Si3 0.331215 0.506100 0.500000
O O1 0.205320 0.537875 0.717554
O O2 0.090351 0.670703 0.804351
O O3 0.114362 0.668179 0.605827
O O4 0.268631 0.177585 0.883167
O O5 0.301046 0.372998 0.000000
O O6 0.461251 0.665028 0.500000
#
# Coordination Sequence:
#
# PCOD9581544 Si02
#       3
#    12  12   6
#     4   8  16  31  53  80 104 125 156 199 254 299
#     4  10  21  36  52  69  95 135 176 208 240 288
#     4   6  10  26  50  72 102 132 154 186 232 306
#
# _framework density 20.464904000000001
#
# number of rings (size 3 to 8) (size 9 to 14) (size 15 to 20)
#    1.200    2.400    0.000    0.400    0.000    4.800 
#    0.000    6.000    0.000    7.200    0.000    2.800 
#    0.000    0.000    0.000    0.000    0.000    0.000 
#
# Total GULP energy -167001.824697 kJ/mol
# GULP energy per Si atom -5566.727490 kJ/mol
# Density = 2.041832 g / cm^3
# Si number density = 20.464904 Si / 1000 Ang^3
#
#
#
# Elastic Constant Matrix: (Units=GPa)
#
#
# Indices 1 2 3 4 5 6 
#
# 1 55.4292 17.0848 60.0240 0.0000 0.0000 0.0000
# 2 17.0848 55.4292 60.0240 0.0000 0.0000 0.0000
# 3 60.0240 60.0240 202.2950 0.0000 0.0000 0.0000
# 4 0.0000 0.0000 0.0000 -3.2809 0.0000 0.0000
# 5 0.0000 0.0000 0.0000 0.0000 -3.2809 0.0000
# 6 0.0000 0.0000 0.0000 0.0000 0.0000 19.1722
#
#
#
# Elastic Compliance Matrix: (Units=1/GPa)
#
#
# Indices 1 2 3 4 5 6 
#
# 1 0.026592 0.000513 -0.008042 0.000000 0.000000 0.000000
# 2 0.000513 0.026592 -0.008042 0.000000 0.000000 0.000000
# 3 -0.008042 -0.008042 0.009716 0.000000 0.000000 0.000000
# 4 0.000000 0.000000 0.000000 -0.304792 0.000000 0.000000
# 5 0.000000 0.000000 0.000000 0.000000 -0.304792 0.000000
# 6 0.000000 0.000000 0.000000 0.000000 0.000000 0.052159
#
#
# Mechanical properties :
#
#
# Convention : Reuss Voigt Hill
#
# Bulk Modulus (GPa) = 31.49035 65.26877 48.37956
# Shear Modulus (GPa) = -11.04253 14.25678 1.60713
#
# Velocity S-wave (km/s) = -2.32541 2.64227 0.88714
# Velocity P-wave (km/s) = 2.86545 6.42425 4.97403
#
# Compressibility (1/GPa) = 0.03175576
#
# Stress axis : x y z
#
# Youngs Moduli (GPa) = 37.60523 37.60523 102.92444
#
# Poissons Ratio (x) = -0.01928 0.82776
# Poissons Ratio (y) = -0.01928 0.82776
# Poissons Ratio (z) = 0.30244 0.30244
#
# Static dielectric constant tensor:
#      x y z
#    x 1.743780 0.000000 0.000000 
#    y 0.000000 1.743780 0.000000 
#    z 0.000000 0.000000 1.748700 
# 
# From -- ./inp_files/1504.got.cif
#   From: 2010.05.17/outbox.cif.g08.bks.cpg/sg175_1_cif.got.tgz:1504.got - 2010.05.20 11:23:22.
