data_PCOD9581581
_publ_section_title
;
Structure prediction by ZEFSAII (Michael W. Deem and Ramdas Pophale) SiO2 
 PCOD9581581
Probable space group: P 6/M
;
_chemical_formula_sum "Si O2"
_cell_formula_units_Z 48
_cell_length_a 13.293418
_cell_length_b 13.293418
_cell_length_c 13.571189
_cell_angle_alpha 90.000000
_cell_angle_beta 90.000000
_cell_angle_gamma 120.000000
_cell_volume 2076.929966
_symmetry_space_group_name_H-M "P 6/M"
_symmetry_group_IT_number 175
_symmetry_cell_setting 'hexagonal'
loop_
_space_group_symop_operation_xyz
x,y,z
x-y,x,z
-y,x-y,z
-x,-y,z
-x+y,-x,z
y,-x+y,z
-x,-y,-z
-x+y,-x,-z
y,-x+y,-z
x,y,-z
x-y,x,-z
-y,x-y,-z
loop_
_atom_site_type_symbol
_atom_site_label
_atom_site_fract_x
_atom_site_fract_y
_atom_site_fract_z
Si Si1 0.409440 0.867128 0.311518
Si Si2 0.606378 0.832366 0.389670
Si Si3 0.268805 0.078455 0.810874
Si Si4 0.517017 0.128727 0.108157
O O1 0.481330 0.824890 0.376417
O O2 0.300731 0.863022 0.363089
O O3 0.394983 0.817106 0.200803
O O4 0.500000 0.000000 0.296869
O O5 0.649811 0.865704 0.500000
O O6 0.696059 0.907855 0.304948
O O7 0.225037 0.170358 0.832904
O O8 0.391296 0.113715 0.863902
O O9 0.500000 0.000000 0.099135
O O10 0.552557 0.182636 0.000000
#
# Coordination Sequence:
#
# PCOD9581581 Si02
#       4
#    12  12  12  12
#     4  10  21  38  59  89 125 158 203 263 327 394
#     4  11  22  37  61  92 127 171 222 278 341 404
#     4  11  24  41  62  92 133 182 235 285 335 398
#     4   9  19  39  66  92 121 159 206 268 340 405
#
# _framework density 23.111032999999999
#
# number of rings (size 3 to 8) (size 9 to 14) (size 15 to 20)
#    0.000    1.750    0.000    6.000    0.000    6.000 
#    0.000    7.500    0.000    4.000    0.000    0.000 
#    0.000    0.000    0.000    0.000    0.000    0.000 
#
# Total GULP energy -268026.628193 kJ/mol
# GULP energy per Si atom -5583.888087 kJ/mol
# Density = 2.305843 g / cm^3
# Si number density = 23.111033 Si / 1000 Ang^3
#
#
#
# Elastic Constant Matrix: (Units=GPa)
#
#
# Indices 1 2 3 4 5 6 
#
# 1 80.1777 -5.6919 -14.1639 0.0000 0.0000 0.0000
# 2 -5.6919 80.1777 -14.1639 0.0000 0.0000 0.0000
# 3 -14.1639 -14.1639 113.2493 0.0000 0.0000 0.0000
# 4 0.0000 0.0000 0.0000 -50.9520 0.0000 0.0000
# 5 0.0000 0.0000 0.0000 0.0000 -50.9520 0.0000
# 6 0.0000 0.0000 0.0000 0.0000 0.0000 42.9348
#
#
#
# Elastic Compliance Matrix: (Units=1/GPa)
#
#
# Indices 1 2 3 4 5 6 
#
# 1 0.012871 0.001225 0.001763 0.000000 0.000000 0.000000
# 2 0.001225 0.012871 0.001763 0.000000 0.000000 0.000000
# 3 0.001763 0.001763 0.009271 0.000000 0.000000 0.000000
# 4 0.000000 0.000000 0.000000 -0.019626 0.000000 0.000000
# 5 0.000000 0.000000 0.000000 0.000000 -0.019626 0.000000
# 6 0.000000 0.000000 0.000000 0.000000 0.000000 0.023291
#
#
# Mechanical properties :
#
#
# Convention : Reuss Voigt Hill
#
# Bulk Modulus (GPa) = 22.46457 22.84058 22.65258
# Shear Modulus (GPa) = 205.02665 8.71446 106.87056
#
# Velocity S-wave (km/s) = 9.42902 1.94393 6.80754
# Velocity P-wave (km/s) = 11.32622 3.86561 8.46245
#
# Compressibility (1/GPa) = 0.04451453
#
# Stress axis : x y z
#
# Youngs Moduli (GPa) = 77.69579 77.69579 107.86259
#
# Poissons Ratio (x) = -0.09519 -0.19016
# Poissons Ratio (y) = -0.09519 -0.19016
# Poissons Ratio (z) = -0.13697 -0.13697
#
# Static dielectric constant tensor:
#      x y z
#    x -0.070990 0.000000 0.000000 
#    y 0.000000 -0.070990 0.000000 
#    z 0.000000 0.000000 1.904330 
# 
# From -- ./inp_files/2252.got.cif
#   From: 2010.05.17/outbox.cif.g08.bks.cpg/sg175_2_cif.got.tgz:2252.got - 2010.05.20 11:23:22.
