data_PCOD9581852
_publ_section_title
;
Structure prediction by ZEFSAII (Michael W. Deem and Ramdas Pophale) SiO2 
 PCOD9581852
Probable space group: P 63/M
;
_chemical_formula_sum "Si O2"
_cell_formula_units_Z 72
_cell_length_a 23.289923
_cell_length_b 23.289923
_cell_length_c 7.765084
_cell_angle_alpha 90.000000
_cell_angle_beta 90.000000
_cell_angle_gamma 120.000000
_cell_volume 3647.647775
_symmetry_space_group_name_H-M "P 63/M"
_symmetry_group_IT_number 176
_symmetry_cell_setting 'hexagonal'
loop_
_space_group_symop_operation_xyz
x,y,z
x-y,x,1/2+z
-y,x-y,z
-x,-y,1/2+z
-x+y,-x,z
y,-x+y,1/2+z
-x,-y,-z
-x+y,-x,1/2-z
y,-x+y,-z
x,y,1/2-z
x-y,x,-z
-y,x-y,1/2-z
loop_
_atom_site_type_symbol
_atom_site_label
_atom_site_fract_x
_atom_site_fract_y
_atom_site_fract_z
Si Si1 0.258815 0.247504 0.044635
Si Si2 0.506654 0.378714 0.041300
Si Si3 0.382010 0.386844 0.039715
Si Si4 0.846419 0.709952 0.041700
Si Si5 0.645439 0.498132 0.952583
Si Si6 0.560620 0.770304 0.550180
O O1 0.266997 0.247843 0.250000
O O2 0.323792 0.314710 0.980174
O O3 0.258664 0.181472 0.982366
O O4 0.194519 0.254392 0.011884
O O5 0.509366 0.378940 0.250000
O O6 0.454477 0.401557 0.987779
O O7 0.473932 0.303346 0.976313
O O8 0.580299 0.427957 0.979308
O O9 0.380768 0.385955 0.250000
O O10 0.368650 0.444603 0.980954
O O11 0.845382 0.710292 0.250000
O O12 0.808863 0.632951 0.979663
O O13 0.659475 0.509027 0.750000
O O14 0.712548 0.510495 0.038470
O O15 0.573829 0.762798 0.750000
#
# Coordination Sequence:
#
# PCOD9581852 Si02
#       6
#    12  12  12  12  12  12
#     4  10  19  35  58  84 118 151 177 220 279 329
#     4  10  20  37  57  75 103 143 185 222 265 326
#     4   9  17  32  55  81 108 140 172 214 275 324
#     4  10  20  35  58  87 115 146 186 226 269 328
#     4  11  22  35  53  79 110 140 176 224 279 326
#     4  10  20  36  57  78 103 142 188 229 269 325
#
# _framework density 19.738748999999999
#
# number of rings (size 3 to 8) (size 9 to 14) (size 15 to 20)
#    0.000    2.000    3.333    1.000    0.000    1.333 
#    1.000    1.667    0.000    0.333    0.000    0.000 
#    0.000    0.000    0.000    0.000    0.000    0.000 
#
# Total GULP energy -401926.858551 kJ/mol
# GULP energy per Si atom -5582.317480 kJ/mol
# Density = 1.969382 g / cm^3
# Si number density = 19.738749 Si / 1000 Ang^3
#
#
#
# Elastic Constant Matrix: (Units=GPa)
#
#
# Indices 1 2 3 4 5 6 
#
# 1 92.6482 26.9967 -6.1870 0.0000 0.0000 0.0000
# 2 26.9967 92.6482 -6.1870 0.0000 0.0000 0.0000
# 3 -6.1870 -6.1870 25.5909 0.0000 0.0000 0.0000
# 4 0.0000 0.0000 0.0000 16.2480 0.0000 0.0000
# 5 0.0000 0.0000 0.0000 0.0000 16.2480 0.0000
# 6 0.0000 0.0000 0.0000 0.0000 0.0000 32.8258
#
#
#
# Elastic Compliance Matrix: (Units=1/GPa)
#
#
# Indices 1 2 3 4 5 6 
#
# 1 0.011902 -0.003330 0.002073 0.000000 0.000000 0.000000
# 2 -0.003330 0.011902 0.002073 0.000000 0.000000 0.000000
# 3 0.002073 0.002073 0.040078 0.000000 0.000000 0.000000
# 4 0.000000 0.000000 0.000000 0.061546 0.000000 0.000000
# 5 0.000000 0.000000 0.000000 0.000000 0.061546 0.000000
# 6 0.000000 0.000000 0.000000 0.000000 0.000000 0.030464
#
#
# Mechanical properties :
#
#
# Convention : Reuss Voigt Hill
#
# Bulk Modulus (GPa) = 15.26406 26.68142 20.97274
# Shear Modulus (GPa) = 21.03966 26.14865 23.59415
#
# Velocity S-wave (km/s) = 3.26836 3.64364 3.46109
# Velocity P-wave (km/s) = 4.68965 5.59000 5.15950
#
# Compressibility (1/GPa) = 0.06551338
#
# Stress axis : x y z
#
# Youngs Moduli (GPa) = 84.01825 84.01825 24.95104
#
# Poissons Ratio (x) = 0.27976 -0.05171
# Poissons Ratio (y) = 0.27976 -0.05171
# Poissons Ratio (z) = -0.17413 -0.17413
#
# Static dielectric constant tensor:
#      x y z
#    x 1.682330 0.000000 0.000000 
#    y 0.000000 1.682330 0.000000 
#    z 0.000000 0.000000 1.742010 
# 
# From -- ./inp_files/1135.got.cif
#   From: 2010.05.17/outbox.cif.g08.bks.cpg/sg176_1_cif.got.tgz:1135.got - 2010.06.03 11:36:45.
