data_PCOD9581020
_publ_section_title
;
Structure prediction by ZEFSAII (Michael W. Deem and Ramdas Pophale) SiO2 
 PCOD9581020
Probable space group: P 63
;
_chemical_formula_sum "Si O2"
_cell_formula_units_Z 48
_cell_length_a 19.265062
_cell_length_b 19.265062
_cell_length_c 8.442390
_cell_angle_alpha 90.000000
_cell_angle_beta 90.000000
_cell_angle_gamma 120.000000
_cell_volume 2713.543978
_symmetry_space_group_name_H-M "P 63"
_symmetry_group_IT_number 173
_symmetry_cell_setting 'hexagonal'
loop_
_space_group_symop_operation_xyz
x,y,z
x-y,x,1/2+z
-y,x-y,z
-x,-y,1/2+z
-x+y,-x,z
y,-x+y,1/2+z
loop_
_atom_site_type_symbol
_atom_site_label
_atom_site_fract_x
_atom_site_fract_y
_atom_site_fract_z
Si Si1 0.092967 0.458402 0.262060
Si Si2 0.372599 0.053910 0.074135
Si Si3 0.251572 0.080689 0.870477
Si Si4 0.231638 0.156518 0.173295
Si Si5 0.617785 0.533398 0.773106
Si Si6 0.802052 0.208356 0.662863
Si Si7 0.672132 0.889686 0.870407
Si Si8 0.677489 0.035070 0.072001
O O1 0.088885 0.538625 0.248157
O O2 0.174107 0.462939 0.208581
O O3 0.077595 0.425213 0.440990
O O4 0.025592 0.388444 0.153191
O O5 0.378146 0.110218 0.219136
O O6 0.296507 0.042352 0.971006
O O7 0.447210 0.088837 0.956349
O O8 0.325867 0.153508 0.774721
O O9 0.190090 0.013020 0.748851
O O10 0.213320 0.112835 0.002070
O O11 0.246900 0.103352 0.301281
O O12 0.319760 0.235257 0.148269
O O13 0.696363 0.544422 0.685327
O O14 0.611422 0.607888 0.702039
O O15 0.814627 0.187816 0.485440
O O16 0.684618 0.964471 0.978623
#
# Coordination Sequence:
#
# PCOD9581020 Si02
#       8
#     6   6   6   6   6   6   6   6
#     4  11  20  32  54  78 106 150 184 230 290 329
#     4   9  18  32  52  79 104 139 177 236 287 333
#     4  10  19  33  55  78 119 140 183 233 292 343
#     4  11  18  34  53  82 114 148 173 240 288 338
#     4  10  20  35  49  76 114 142 187 233 278 343
#     4  10  19  33  51  78 105 148 185 237 276 336
#     4   9  19  31  54  79 111 132 176 229 280 338
#     4  10  19  34  54  82 111 139 185 230 283 336
#
# _framework density 17.689045
#
# number of rings (size 3 to 8) (size 9 to 14) (size 15 to 20)
#    0.000    2.000    5.000    1.500    0.000    0.000 
#    0.750    0.000    0.000    0.000    0.000    0.000 
#   12.500    0.000    0.000    0.000    0.000    0.000 
#
# Total GULP energy -267443.033102 kJ/mol
# GULP energy per Si atom -5571.729856 kJ/mol
# Density = 1.764878 g / cm^3
# Si number density = 17.689045 Si / 1000 Ang^3
#
#
#
# Elastic Constant Matrix: (Units=GPa)
#
#
# Indices 1 2 3 4 5 6 
#
# 1 53.8744 21.0023 23.4082 0.0000 0.0000 0.0000
# 2 21.0023 53.8744 23.4082 0.0000 0.0000 0.0000
# 3 23.4082 23.4082 95.9272 0.0000 0.0000 0.0000
# 4 0.0000 0.0000 0.0000 19.2137 0.0000 0.0000
# 5 0.0000 0.0000 0.0000 0.0000 19.2137 0.0000
# 6 0.0000 0.0000 0.0000 0.0000 0.0000 16.4361
#
#
#
# Elastic Compliance Matrix: (Units=1/GPa)
#
#
# Indices 1 2 3 4 5 6 
#
# 1 0.023090 -0.007331 -0.003846 0.000000 0.000000 0.000000
# 2 -0.007331 0.023090 -0.003846 0.000000 0.000000 0.000000
# 3 -0.003846 -0.003846 0.012301 0.000000 0.000000 0.000000
# 4 0.000000 0.000000 0.000000 0.052046 0.000000 0.000000
# 5 0.000000 0.000000 0.000000 0.000000 0.052046 0.000000
# 6 0.000000 0.000000 0.000000 0.000000 0.000000 0.060842
#
#
# Mechanical properties :
#
#
# Convention : Reuss Voigt Hill
#
# Bulk Modulus (GPa) = 35.16397 37.70148 36.43272
# Shear Modulus (GPa) = 19.01578 20.02987 19.52282
#
# Velocity S-wave (km/s) = 3.28228 3.36866 3.32575
# Velocity P-wave (km/s) = 5.85548 6.04072 5.94882
#
# Compressibility (1/GPa) = 0.02843820
#
# Stress axis : x y z
#
# Youngs Moduli (GPa) = 43.30812 43.30812 81.29137
#
# Poissons Ratio (x) = 0.31747 0.31262
# Poissons Ratio (y) = 0.31747 0.31262
# Poissons Ratio (z) = 0.16655 0.16655
#
# Static dielectric constant tensor:
#      x y z
#    x 1.615650 0.000000 0.000000 
#    y 0.000000 1.615650 0.000000 
#    z 0.000000 0.000000 1.648960 
# 
# From -- ./inp_files/660.got.cif
#   From: 2010.05.17/outbox.cif.g08.bks.cpg/sg173_cif.got.tgz:660.got - 2010.05.20 11:21:53.
