data_PCOD9581429
_publ_section_title
;
Structure prediction by ZEFSAII (Michael W. Deem and Ramdas Pophale) SiO2 
 PCOD9581429
Probable space group: P 6/M
;
_chemical_formula_sum "Si O2"
_cell_formula_units_Z 60
_cell_length_a 24.124482
_cell_length_b 24.124482
_cell_length_c 7.299961
_cell_angle_alpha 90.000000
_cell_angle_beta 90.000000
_cell_angle_gamma 120.000000
_cell_volume 3679.316648
_symmetry_space_group_name_H-M "P 6/M"
_symmetry_group_IT_number 175
_symmetry_cell_setting 'hexagonal'
loop_
_space_group_symop_operation_xyz
x,y,z
x-y,x,z
-y,x-y,z
-x,-y,z
-x+y,-x,z
y,-x+y,z
-x,-y,-z
-x+y,-x,-z
y,-x+y,-z
x,y,-z
x-y,x,-z
-y,x-y,-z
loop_
_atom_site_type_symbol
_atom_site_label
_atom_site_fract_x
_atom_site_fract_y
_atom_site_fract_z
Si Si1 0.387632 0.130028 0.781737
Si Si2 0.797980 0.725048 0.500000
Si Si3 0.072933 0.274952 0.500000
Si Si4 0.869972 0.612368 0.781737
Si Si5 0.598429 0.074375 0.777672
Si Si6 0.598429 0.524054 0.777672
O O1 0.322024 0.087111 0.673210
O O2 0.406362 0.203181 0.746068
O O3 0.441753 0.113708 0.721179
O O4 0.377855 0.118695 0.000000
O O5 0.780897 0.780897 0.500000
O O6 0.872587 0.745174 0.500000
O O7 0.087111 0.322024 0.673210
O O8 0.886292 0.558247 0.721179
O O9 0.881305 0.622145 0.000000
O O10 0.548014 0.096029 0.717259
O O11 0.568015 0.000000 0.724065
O O12 0.598413 0.075566 0.000000
O O13 0.598413 0.522847 0.000000
#
# Coordination Sequence:
#
# PCOD9581429 Si02
#       6
#    12   6   6  12  12  12
#     4   9  17  29  45  64  87 116 147 179 217 258
#     4  10  20  32  47  68  91 113 139 173 213 259
#     4  10  20  32  47  68  91 113 139 173 213 259
#     4   9  17  29  45  64  87 116 147 179 217 258
#     4   8  13  22  38  59  82 109 139 171 208 247
#     4   8  13  22  38  59  82 109 139 171 208 247
#
# _framework density 16.307376000000001
#
# number of rings (size 3 to 8) (size 9 to 14) (size 15 to 20)
#    0.000    3.200    0.000    2.400    0.000    2.400 
#    0.000    1.000    0.000    4.600    0.000    5.600 
#    0.000    0.000    0.000   10.000    0.000    0.000 
#
# Total GULP energy -334318.404775 kJ/mol
# GULP energy per Si atom -5571.973413 kJ/mol
# Density = 1.627026 g / cm^3
# Si number density = 16.307376 Si / 1000 Ang^3
#
#
#
# Elastic Constant Matrix: (Units=GPa)
#
#
# Indices 1 2 3 4 5 6 
#
# 1 125.3070 74.8419 23.5578 0.0000 0.0000 0.0000
# 2 74.8419 125.3070 23.5578 0.0000 0.0000 0.0000
# 3 23.5578 23.5578 66.5025 0.0000 0.0000 0.0000
# 4 0.0000 0.0000 0.0000 11.8676 0.0000 0.0000
# 5 0.0000 0.0000 0.0000 0.0000 11.8676 0.0000
# 6 0.0000 0.0000 0.0000 0.0000 0.0000 25.2325
#
#
#
# Elastic Compliance Matrix: (Units=1/GPa)
#
#
# Indices 1 2 3 4 5 6 
#
# 1 0.012633 -0.007182 -0.001931 0.000000 0.000000 0.000000
# 2 -0.007182 0.012633 -0.001931 0.000000 0.000000 0.000000
# 3 -0.001931 -0.001931 0.016405 0.000000 0.000000 0.000000
# 4 0.000000 0.000000 0.000000 0.084263 0.000000 0.000000
# 5 0.000000 0.000000 0.000000 0.000000 0.084263 0.000000
# 6 0.000000 0.000000 0.000000 0.000000 0.000000 0.039631
#
#
# Mechanical properties :
#
#
# Convention : Reuss Voigt Hill
#
# Bulk Modulus (GPa) = 51.06447 62.33682 56.70065
# Shear Modulus (GPa) = 17.95683 22.80413 20.38048
#
# Velocity S-wave (km/s) = 3.32195 3.74357 3.53905
# Velocity P-wave (km/s) = 6.78937 7.54949 7.17950
#
# Compressibility (1/GPa) = 0.01958309
#
# Stress axis : x y z
#
# Youngs Moduli (GPa) = 79.15614 79.15614 60.95700
#
# Poissons Ratio (x) = 0.56853 0.11770
# Poissons Ratio (y) = 0.56853 0.11770
# Poissons Ratio (z) = 0.15284 0.15284
#
# Static dielectric constant tensor:
#      x y z
#    x 1.534490 0.000000 0.000000 
#    y 0.000000 1.534490 0.000000 
#    z 0.000000 0.000000 1.609520 
# 
# From -- ./inp_files/1128.got.cif
#   From: 2010.05.17/outbox.cif.g08.bks.cpg/sg175_1_cif.got.tgz:1128.got - 2010.05.20 11:23:22.
