data_PCOD9581038
_publ_section_title
;
Structure prediction by ZEFSAII (Michael W. Deem and Ramdas Pophale) SiO2 
 PCOD9581038
Probable space group: P 63
;
_chemical_formula_sum "Si O2"
_cell_formula_units_Z 48
_cell_length_a 17.623467
_cell_length_b 17.623467
_cell_length_c 8.725102
_cell_angle_alpha 90.000000
_cell_angle_beta 90.000000
_cell_angle_gamma 120.000000
_cell_volume 2346.841956
_symmetry_space_group_name_H-M "P 63"
_symmetry_group_IT_number 173
_symmetry_cell_setting 'hexagonal'
loop_
_space_group_symop_operation_xyz
x,y,z
x-y,x,1/2+z
-y,x-y,z
-x,-y,1/2+z
-x+y,-x,z
y,-x+y,1/2+z
loop_
_atom_site_type_symbol
_atom_site_label
_atom_site_fract_x
_atom_site_fract_y
_atom_site_fract_z
Si Si1 0.810764 0.939878 0.327520
Si Si2 0.804448 0.625864 0.689835
Si Si3 0.939878 0.129113 0.189792
Si Si4 0.918379 0.559738 0.185688
Si Si5 0.121510 0.614567 0.188590
Si Si6 0.559738 0.641359 0.331624
Si Si7 0.178584 0.804448 0.827477
Si Si8 0.878490 0.385433 0.328722
O O1 0.709613 0.895267 0.278317
O O2 0.821113 0.956891 0.508656
O O3 0.841052 0.870677 0.279889
O O4 0.870678 0.029626 0.237423
O O5 0.715755 0.536871 0.733473
O O6 0.885381 0.612066 0.728614
O O7 0.799731 0.639620 0.508656
O O8 0.895267 0.185654 0.238995
O O9 0.885381 0.612066 0.288698
O O10 0.870102 0.457773 0.233017
O O11 0.021258 0.593693 0.204439
O O12 0.902280 0.570919 0.008656
O O13 0.129898 0.542228 0.284296
O O14 0.135860 0.604130 0.008656
O O15 0.593693 0.572435 0.312873
O O16 0.178884 0.715755 0.783839
#
# Coordination Sequence:
#
# PCOD9581038 Si02
#       8
#     6   6   6   6   6   6   6   6
#     4  12  25  42  63  90 125 164 207 253 304 358
#     4  11  22  38  61  89 120 157 200 245 297 360
#     4  12  25  42  63  90 125 164 207 253 304 358
#     4  10  20  36  59  85 114 148 192 243 294 349
#     4   9  20  38  58  81 112 151 191 236 292 353
#     4  10  20  36  59  85 114 148 192 243 294 349
#     4  11  22  38  61  89 120 157 200 245 297 360
#     4   9  20  38  58  81 112 151 191 236 292 353
#
# _framework density 20.453016999999999
#
# number of rings (size 3 to 8) (size 9 to 14) (size 15 to 20)
#    0.000    1.500    0.000    5.500    0.000    5.000 
#    1.500    0.000    0.000    0.000    0.000    0.000 
#    0.000    0.000    0.000    0.000    0.000    0.000 
#
# Total GULP energy -268399.855924 kJ/mol
# GULP energy per Si atom -5591.663665 kJ/mol
# Density = 2.040647 g / cm^3
# Si number density = 20.453017 Si / 1000 Ang^3
#
#
#
# Elastic Constant Matrix: (Units=GPa)
#
#
# Indices 1 2 3 4 5 6 
#
# 1 35.8980 -9.7277 1.8132 0.0000 0.0000 0.0000
# 2 -9.7277 35.8980 1.8132 0.0000 0.0000 0.0000
# 3 1.8132 1.8132 41.4852 0.0000 0.0000 0.0000
# 4 0.0000 0.0000 0.0000 31.4976 0.0000 0.0000
# 5 0.0000 0.0000 0.0000 0.0000 31.4976 0.0000
# 6 0.0000 0.0000 0.0000 0.0000 0.0000 22.8129
#
#
#
# Elastic Compliance Matrix: (Units=1/GPa)
#
#
# Indices 1 2 3 4 5 6 
#
# 1 0.030181 0.008263 -0.001680 0.000000 0.000000 0.000000
# 2 0.008263 0.030181 -0.001680 0.000000 0.000000 0.000000
# 3 -0.001680 -0.001680 0.024252 0.000000 0.000000 0.000000
# 4 0.000000 0.000000 0.000000 0.031748 0.000000 0.000000
# 5 0.000000 0.000000 0.000000 0.000000 0.031748 0.000000
# 6 0.000000 0.000000 0.000000 0.000000 0.000000 0.043835
#
#
# Mechanical properties :
#
#
# Convention : Reuss Voigt Hill
#
# Bulk Modulus (GPa) = 10.59109 11.23095 10.91102
# Shear Modulus (GPa) = 23.40684 25.12046 24.26365
#
# Velocity S-wave (km/s) = 3.38660 3.50838 3.44802
# Velocity P-wave (km/s) = 4.52565 4.68130 4.60414
#
# Compressibility (1/GPa) = 0.09441902
#
# Stress axis : x y z
#
# Youngs Moduli (GPa) = 33.13361 33.13361 41.23396
#
# Poissons Ratio (x) = -0.27380 0.06929
# Poissons Ratio (y) = -0.27380 0.06929
# Poissons Ratio (z) = 0.05567 0.05567
#
# Static dielectric constant tensor:
#      x y z
#    x 1.733790 0.000000 0.000000 
#    y 0.000000 1.733790 0.000000 
#    z 0.000000 0.000000 1.689050 
# 
# From -- ./inp_files/675.got.cif
#   From: 2010.05.17/outbox.cif.g08.bks.cpg/sg173_cif.got.tgz:675.got - 2010.05.20 11:21:53.
