data_PCOD9581142
_publ_section_title
;
Structure prediction by ZEFSAII (Michael W. Deem and Ramdas Pophale) SiO2 
 PCOD9581142
Probable space group: P -6
;
_chemical_formula_sum "Si O2"
_cell_formula_units_Z 26
_cell_length_a 12.824439
_cell_length_b 12.824439
_cell_length_c 11.157767
_cell_angle_alpha 90.000000
_cell_angle_beta 90.000000
_cell_angle_gamma 120.000000
_cell_volume 1589.222379
_symmetry_space_group_name_H-M "P -6"
_symmetry_group_IT_number 174
_symmetry_cell_setting 'hexagonal'
loop_
_space_group_symop_operation_xyz
x,y,z
-x+y,-x,-z
-y,x-y,z
x,y,-z
-x+y,-x,z
-y,x-y,-z
loop_
_atom_site_type_symbol
_atom_site_label
_atom_site_fract_x
_atom_site_fract_y
_atom_site_fract_z
Si Si1 0.750126 0.753096 0.364411
Si Si2 0.670813 0.080318 0.129720
Si Si3 0.873076 0.338546 0.206134
Si Si4 0.666668 0.333335 0.639278
Si Si5 0.250338 0.248041 0.636872
O O1 0.706643 0.709066 0.500000
O O2 0.673269 0.653181 0.265949
O O3 0.752601 0.878194 0.349420
O O4 0.884566 0.772215 0.356009
O O5 0.784296 0.216751 0.135068
O O6 0.549387 0.087819 0.137606
O O7 0.681881 0.018488 0.251390
O O8 0.674822 0.027212 0.000000
O O9 0.785453 0.337062 0.311045
O O10 0.666667 0.333334 0.500000
O O11 0.297040 0.291402 0.500000
#
# Coordination Sequence:
#
# PCOD9581142 Si02
#       5
#     6   6   6   2   6
#     4   9  16  29  48  71  96 124 155 190 230 275
#     4  10  19  32  47  69  97 125 154 190 231 278
#     4   9  18  28  46  68  93 127 157 184 228 280
#     4   9  15  24  40  71 103 120 145 191 232 267
#     4   9  18  31  49  71  96 124 156 191 230 274
#
# _framework density 16.360202999999998
#
# number of rings (size 3 to 8) (size 9 to 14) (size 15 to 20)
#    0.000    2.769    0.000    2.308    0.000    8.308 
#    0.000    5.769    0.000    0.923    0.000    0.000 
#    0.000    0.000    0.000    0.000    0.000    0.000 
#
# Total GULP energy -144757.803476 kJ/mol
# GULP energy per Si atom -5567.607826 kJ/mol
# Density = 1.632297 g / cm^3
# Si number density = 16.360203 Si / 1000 Ang^3
#
#
#
# Elastic Constant Matrix: (Units=GPa)
#
#
# Indices 1 2 3 4 5 6 
#
# 1 51.9853 7.9673 36.6896 0.0000 0.0000 0.0000
# 2 7.9673 51.9852 36.6898 0.0000 0.0000 -0.0002
# 3 36.6896 36.6898 137.8291 0.0000 0.0000 -0.0002
# 4 0.0000 0.0000 0.0000 -18.0785 0.0006 0.0000
# 5 0.0000 0.0000 0.0000 0.0006 -18.0808 0.0000
# 6 0.0000 -0.0002 -0.0002 0.0000 0.0000 22.0092
#
#
#
# Elastic Compliance Matrix: (Units=1/GPa)
#
#
# Indices 1 2 3 4 5 6 
#
# 1 0.023729 0.001011 -0.006586 0.000000 0.000000 0.000000
# 2 0.001011 0.023729 -0.006586 0.000000 0.000000 0.000000
# 3 -0.006586 -0.006586 0.010762 0.000000 0.000000 0.000000
# 4 0.000000 0.000000 0.000000 -0.055314 -0.000002 0.000000
# 5 0.000000 0.000000 0.000000 -0.000002 -0.055307 0.000000
# 6 0.000000 0.000000 0.000000 0.000000 0.000000 0.045436
#
#
# Mechanical properties :
#
#
# Convention : Reuss Voigt Hill
#
# Bulk Modulus (GPa) = 29.49894 44.94366 37.22130
# Shear Modulus (GPa) = 174.48980 7.86685 91.17832
#
# Velocity S-wave (km/s) = 10.33860 2.19521 7.47347
# Velocity P-wave (km/s) = 12.67223 5.82720 9.86260
#
# Compressibility (1/GPa) = 0.03389952
#
# Stress axis : x y z
#
# Youngs Moduli (GPa) = 42.14198 42.14176 92.92240
#
# Poissons Ratio (x) = -0.04262 0.61198
# Poissons Ratio (y) = -0.04262 0.61198
# Poissons Ratio (z) = 0.27754 0.27754
#
# Static dielectric constant tensor:
#      x y z
#    x 1.538150 0.000000 0.000000 
#    y 0.000000 1.538150 0.000000 
#    z 0.000000 0.000000 1.582320 
# 
# From -- ./inp_files/668.got.cif
#   From: 2010.05.17/outbox.cif.g08.bks.cpg/sg174_cif.got.tgz:668.got - 2010.05.20 11:22:48.
