data_PCOD9581886
_publ_section_title
;
Structure prediction by ZEFSAII (Michael W. Deem and Ramdas Pophale) SiO2 
 PCOD9581886
Probable space group: P 63/M
;
_chemical_formula_sum "Si O2"
_cell_formula_units_Z 72
_cell_length_a 24.259535
_cell_length_b 24.259535
_cell_length_c 8.965695
_cell_angle_alpha 90.000000
_cell_angle_beta 90.000000
_cell_angle_gamma 120.000000
_cell_volume 4569.614215
_symmetry_space_group_name_H-M "P 63/M"
_symmetry_group_IT_number 176
_symmetry_cell_setting 'hexagonal'
loop_
_space_group_symop_operation_xyz
x,y,z
x-y,x,1/2+z
-y,x-y,z
-x,-y,1/2+z
-x+y,-x,z
y,-x+y,1/2+z
-x,-y,-z
-x+y,-x,1/2-z
y,-x+y,-z
x,y,1/2-z
x-y,x,-z
-y,x-y,1/2-z
loop_
_atom_site_type_symbol
_atom_site_label
_atom_site_fract_x
_atom_site_fract_y
_atom_site_fract_z
Si Si1 0.626533 0.136792 0.928261
Si Si2 0.817762 0.635389 0.578664
Si Si3 0.735872 0.481012 0.580513
Si Si4 0.625292 0.484623 0.074986
Si Si5 0.067132 0.703436 0.572394
Si Si6 0.070509 0.371189 0.571671
O O1 0.629772 0.130237 0.750000
O O2 0.673938 0.211747 0.964866
O O3 0.556735 0.118251 0.981744
O O4 0.654015 0.096695 0.009038
O O5 0.830020 0.657551 0.750000
O O6 0.777261 0.558098 0.583202
O O7 0.772219 0.655203 0.494200
O O8 0.881742 0.651305 0.492489
O O9 0.713642 0.458960 0.750000
O O10 0.676901 0.464611 0.475236
O O11 0.611751 0.473159 0.250000
O O12 0.657996 0.560207 0.046970
O O13 0.060259 0.707012 0.750000
O O14 0.999903 0.672983 0.490969
O O15 0.071846 0.372233 0.750000
#
# Coordination Sequence:
#
# PCOD9581886 Si02
#       6
#    12  12  12  12  12  12
#     4  10  20  34  50  66  89 121 156 200 250 300
#     4   9  17  32  52  72  95 123 154 191 233 279
#     4   8  16  31  48  63  81 112 149 186 235 294
#     4  10  20  32  48  68  90 117 152 200 251 297
#     4  10  20  34  51  73  99 128 162 198 238 290
#     4  11  21  33  51  74  98 127 162 198 239 290
#
# _framework density 15.756254999999999
#
# number of rings (size 3 to 8) (size 9 to 14) (size 15 to 20)
#    0.000    2.333    0.000    4.500    0.000    7.333 
#    1.000    0.000    0.000    0.000    0.000    0.000 
#    0.000    0.000    0.000    0.500    0.000    7.000 
#
# Total GULP energy -401587.617699 kJ/mol
# GULP energy per Si atom -5577.605801 kJ/mol
# Density = 1.572039 g / cm^3
# Si number density = 15.756255 Si / 1000 Ang^3
#
#
#
# Elastic Constant Matrix: (Units=GPa)
#
#
# Indices 1 2 3 4 5 6 
#
# 1 70.8450 49.5228 62.7480 0.0000 0.0000 0.0000
# 2 49.5228 70.8450 62.7480 0.0000 0.0000 0.0000
# 3 62.7480 62.7480 120.9755 0.0000 0.0000 0.0000
# 4 0.0000 0.0000 0.0000 24.1327 0.0000 0.0000
# 5 0.0000 0.0000 0.0000 0.0000 24.1327 0.0000
# 6 0.0000 0.0000 0.0000 0.0000 0.0000 10.6611
#
#
#
# Elastic Compliance Matrix: (Units=1/GPa)
#
#
# Indices 1 2 3 4 5 6 
#
# 1 0.032495 -0.014404 -0.009384 0.000000 0.000000 0.000000
# 2 -0.014404 0.032495 -0.009384 0.000000 0.000000 0.000000
# 3 -0.009384 -0.009384 0.018000 0.000000 0.000000 0.000000
# 4 0.000000 0.000000 0.000000 0.041438 0.000000 0.000000
# 5 0.000000 0.000000 0.000000 0.000000 0.041438 0.000000
# 6 0.000000 0.000000 0.000000 0.000000 0.000000 0.093799
#
#
# Mechanical properties :
#
#
# Convention : Reuss Voigt Hill
#
# Bulk Modulus (GPa) = 60.06579 68.07812 64.07196
# Shear Modulus (GPa) = 15.08036 17.62843 16.35439
#
# Velocity S-wave (km/s) = 3.09706 3.34851 3.22524
# Velocity P-wave (km/s) = 7.14099 7.63222 7.39069
#
# Compressibility (1/GPa) = 0.01664841
#
# Stress axis : x y z
#
# Youngs Moduli (GPa) = 30.77366 30.77366 55.55411
#
# Poissons Ratio (x) = 0.44326 0.52130
# Poissons Ratio (y) = 0.44326 0.52130
# Poissons Ratio (z) = 0.28877 0.28877
#
# Static dielectric constant tensor:
#      x y z
#    x 1.518150 0.000000 0.000000 
#    y 0.000000 1.518150 0.000000 
#    z 0.000000 0.000000 1.524760 
# 
# From -- ./inp_files/1144.got.cif
#   From: 2010.05.17/outbox.cif.g08.bks.cpg/sg176_1_cif.got.tgz:1144.got - 2010.06.03 11:36:45.
