data_PCOD9581337
_publ_section_title
;
Structure prediction by ZEFSAII (Michael W. Deem and Ramdas Pophale) SiO2 
 PCOD9581337
Probable space group: P 6/M
;
_chemical_formula_sum "Si O2"
_cell_formula_units_Z 84
_cell_length_a 19.883688
_cell_length_b 19.883688
_cell_length_c 13.645458
_cell_angle_alpha 90.000000
_cell_angle_beta 90.000000
_cell_angle_gamma 120.000000
_cell_volume 4672.105366
_symmetry_space_group_name_H-M "P 6/M"
_symmetry_group_IT_number 175
_symmetry_cell_setting 'hexagonal'
loop_
_space_group_symop_operation_xyz
x,y,z
x-y,x,z
-y,x-y,z
-x,-y,z
-x+y,-x,z
y,-x+y,z
-x,-y,-z
-x+y,-x,-z
y,-x+y,-z
x,y,-z
x-y,x,-z
-y,x-y,-z
loop_
_atom_site_type_symbol
_atom_site_label
_atom_site_fract_x
_atom_site_fract_y
_atom_site_fract_z
Si Si1 0.163342 0.469085 0.890584
Si Si2 0.091884 0.547670 0.763225
Si Si3 0.394158 0.766687 0.383200
Si Si4 0.208460 0.925978 0.892014
Si Si5 0.714715 0.919677 0.786251
Si Si6 0.114294 0.182292 0.384344
Si Si7 0.852322 0.301595 0.115886
O O1 0.121713 0.493373 0.810831
O O2 0.120713 0.375761 0.892595
O O3 0.253615 0.495010 0.873816
O O4 0.156242 0.495587 0.000000
O O5 0.153841 0.593978 0.676533
O O6 0.107381 0.610983 0.847155
O O7 0.000000 0.500000 0.737683
O O8 0.300571 0.717129 0.361603
O O9 0.402710 0.780756 0.500000
O O10 0.120951 0.865224 0.863793
O O11 0.244253 0.990452 0.809964
O O12 0.216119 0.959781 0.000000
O O13 0.741562 0.906805 0.680962
O O14 0.624877 0.884141 0.812704
O O15 0.143319 0.120792 0.363113
O O16 0.125008 0.199772 0.500000
O O17 0.868644 0.295819 0.000000
#
# Coordination Sequence:
#
# PCOD9581337 Si02
#       7
#    12  12  12  12  12  12  12
#     4   9  20  37  54  76 111 152 192 226 270 338
#     4  12  22  33  57  90 120 146 181 238 297 345
#     4   8  18  39  64  82 105 149 199 238 281 344
#     4  10  19  32  51  74 105 146 189 228 269 326
#     4  11  19  33  53  75 105 146 190 226 268 333
#     4  10  20  36  58  83 110 141 184 238 290 333
#     4  10  22  38  55  81 117 155 192 228 278 343
#
# _framework density 17.979047000000001
#
# number of rings (size 3 to 8) (size 9 to 14) (size 15 to 20)
#    0.286    1.714    1.429    4.429    0.000    3.143 
#    0.857    0.714    0.000    6.000    0.000    2.000 
#    0.000    0.000    0.000    0.000    0.000    0.000 
#
# Total GULP energy -467771.622434 kJ/mol
# GULP energy per Si atom -5568.709791 kJ/mol
# Density = 1.793813 g / cm^3
# Si number density = 17.979047 Si / 1000 Ang^3
#
#
#
# Elastic Constant Matrix: (Units=GPa)
#
#
# Indices 1 2 3 4 5 6 
#
# 1 68.1457 26.6878 32.2030 0.0000 0.0000 0.0000
# 2 26.6878 68.1457 32.2030 0.0000 0.0000 0.0000
# 3 32.2030 32.2030 78.9185 0.0000 0.0000 0.0000
# 4 0.0000 0.0000 0.0000 25.8058 0.0000 0.0000
# 5 0.0000 0.0000 0.0000 0.0000 25.8058 0.0000
# 6 0.0000 0.0000 0.0000 0.0000 0.0000 20.7290
#
#
#
# Elastic Compliance Matrix: (Units=1/GPa)
#
#
# Indices 1 2 3 4 5 6 
#
# 1 0.019354 -0.004767 -0.005952 0.000000 0.000000 0.000000
# 2 -0.004767 0.019354 -0.005952 0.000000 0.000000 0.000000
# 3 -0.005952 -0.005952 0.017529 0.000000 0.000000 0.000000
# 4 0.000000 0.000000 0.000000 0.038751 0.000000 0.000000
# 5 0.000000 0.000000 0.000000 0.000000 0.038751 0.000000
# 6 0.000000 0.000000 0.000000 0.000000 0.000000 0.048242
#
#
# Mechanical properties :
#
#
# Convention : Reuss Voigt Hill
#
# Bulk Modulus (GPa) = 43.67929 44.15529 43.91729
# Shear Modulus (GPa) = 22.42598 22.74250 22.58424
#
# Velocity S-wave (km/s) = 3.53560 3.56046 3.54805
# Velocity P-wave (km/s) = 6.40426 6.44323 6.42377
#
# Compressibility (1/GPa) = 0.02289414
#
# Stress axis : x y z
#
# Youngs Moduli (GPa) = 51.66860 51.66860 57.04790
#
# Poissons Ratio (x) = 0.24629 0.33957
# Poissons Ratio (y) = 0.24629 0.33957
# Poissons Ratio (z) = 0.30755 0.30755
#
# Static dielectric constant tensor:
#      x y z
#    x 1.631750 0.000000 0.000000 
#    y 0.000000 1.631750 0.000000 
#    z 0.000000 0.000000 1.612790 
# 
# From -- ./inp_files/1988.got.cif
#   From: 2010.05.17/outbox.cif.g08.bks.cpg/sg175_1_cif.got.tgz:1988.got - 2010.05.20 11:23:22.
