data_PCOD9581927
_publ_section_title
;
Structure prediction by ZEFSAII (Michael W. Deem and Ramdas Pophale) SiO2 
 PCOD9581927
Probable space group: P 63/M
;
_chemical_formula_sum "Si O2"
_cell_formula_units_Z 72
_cell_length_a 22.722424
_cell_length_b 22.722424
_cell_length_c 9.327008
_cell_angle_alpha 90.000000
_cell_angle_beta 90.000000
_cell_angle_gamma 120.000000
_cell_volume 4170.444058
_symmetry_space_group_name_H-M "P 63/M"
_symmetry_group_IT_number 176
_symmetry_cell_setting 'hexagonal'
loop_
_space_group_symop_operation_xyz
x,y,z
x-y,x,1/2+z
-y,x-y,z
-x,-y,1/2+z
-x+y,-x,z
y,-x+y,1/2+z
-x,-y,-z
-x+y,-x,1/2-z
y,-x+y,-z
x,y,1/2-z
x-y,x,-z
-y,x-y,1/2-z
loop_
_atom_site_type_symbol
_atom_site_label
_atom_site_fract_x
_atom_site_fract_y
_atom_site_fract_z
Si Si1 0.745910 0.751312 0.421610
Si Si2 0.228619 0.781352 0.582272
Si Si3 0.860408 0.712354 0.078163
Si Si4 0.005452 0.627473 0.081735
Si Si5 0.153813 0.644433 0.416687
Si Si6 0.879303 0.489564 0.417835
O O1 0.738807 0.752372 0.250000
O O2 0.747430 0.816153 0.494064
O O3 0.811756 0.743592 0.451893
O O4 0.681093 0.685143 0.488768
O O5 0.212467 0.763406 0.750000
O O6 0.187467 0.819519 0.538274
O O7 0.206393 0.713852 0.493180
O O8 0.308788 0.831469 0.568594
O O9 0.872613 0.715927 0.250000
O O10 0.990580 0.633877 0.250000
O O11 0.081228 0.640982 0.070825
O O12 0.953400 0.550161 0.037583
O O13 0.169998 0.645386 0.250000
O O14 0.146822 0.578100 0.491795
O O15 0.881868 0.473892 0.250000
#
# Coordination Sequence:
#
# PCOD9581927 Si02
#       6
#    12  12  12  12  12  12
#     4  11  22  35  60  92 119 154 192 231 284 340
#     4  10  20  38  60  79 108 152 193 234 285 345
#     4  10  21  39  60  87 123 154 188 235 283 339
#     4  10  20  36  57  84 116 149 182 227 287 340
#     4  11  23  36  55  83 114 145 183 239 291 331
#     4  10  21  38  58  77 106 151 193 228 280 344
#
# _framework density 17.264347999999998
#
# number of rings (size 3 to 8) (size 9 to 14) (size 15 to 20)
#    0.000    1.667    3.333    1.500    0.000    4.000 
#    1.000    0.000    0.000    0.333    0.000    0.000 
#    0.000    0.000    0.000    0.000    0.000    0.000 
#
# Total GULP energy -402097.986567 kJ/mol
# GULP energy per Si atom -5584.694258 kJ/mol
# Density = 1.722505 g / cm^3
# Si number density = 17.264348 Si / 1000 Ang^3
#
#
#
# Elastic Constant Matrix: (Units=GPa)
#
#
# Indices 1 2 3 4 5 6 
#
# 1 63.2968 18.3844 35.0801 0.0000 0.0000 0.0000
# 2 18.3844 63.2968 35.0801 0.0000 0.0000 0.0000
# 3 35.0801 35.0801 55.8047 0.0000 0.0000 0.0000
# 4 0.0000 0.0000 0.0000 30.8448 0.0000 0.0000
# 5 0.0000 0.0000 0.0000 0.0000 30.8448 0.0000
# 6 0.0000 0.0000 0.0000 0.0000 0.0000 22.4562
#
#
#
# Elastic Compliance Matrix: (Units=1/GPa)
#
#
# Indices 1 2 3 4 5 6 
#
# 1 0.024439 0.002173 -0.016729 0.000000 0.000000 0.000000
# 2 0.002173 0.024439 -0.016729 0.000000 0.000000 0.000000
# 3 -0.016729 -0.016729 0.038952 0.000000 0.000000 0.000000
# 4 0.000000 0.000000 0.000000 0.032420 0.000000 0.000000
# 5 0.000000 0.000000 0.000000 0.000000 0.032420 0.000000
# 6 0.000000 0.000000 0.000000 0.000000 0.000000 0.044531
#
#
# Mechanical properties :
#
#
# Convention : Reuss Voigt Hill
#
# Bulk Modulus (GPa) = 39.58767 39.94303 39.76535
# Shear Modulus (GPa) = 18.64343 23.08608 20.86476
#
# Velocity S-wave (km/s) = 3.28972 3.66076 3.48019
# Velocity P-wave (km/s) = 6.11635 6.40738 6.26356
#
# Compressibility (1/GPa) = 0.02526039
#
# Stress axis : x y z
#
# Youngs Moduli (GPa) = 40.91850 40.91850 25.67261
#
# Poissons Ratio (x) = -0.08893 0.42948
# Poissons Ratio (y) = -0.08893 0.42948
# Poissons Ratio (z) = 0.68452 0.68452
#
# Static dielectric constant tensor:
#      x y z
#    x 1.569810 0.000000 0.000000 
#    y 0.000000 1.569810 0.000000 
#    z 0.000000 0.000000 1.580480 
# 
# From -- ./inp_files/1222.got.cif
#   From: 2010.05.17/outbox.cif.g08.bks.cpg/sg176_1_cif.got.tgz:1222.got - 2010.06.03 11:36:45.
