data_PCOD9581069
_publ_section_title
;
Structure prediction by ZEFSAII (Michael W. Deem and Ramdas Pophale) SiO2 
 PCOD9581069
Probable space group: P 63
;
_chemical_formula_sum "Si O2"
_cell_formula_units_Z 42
_cell_length_a 8.837158
_cell_length_b 8.837158
_cell_length_c 32.241935
_cell_angle_alpha 90.000000
_cell_angle_beta 90.000000
_cell_angle_gamma 120.000000
_cell_volume 2180.604829
_symmetry_space_group_name_H-M "P 63"
_symmetry_group_IT_number 173
_symmetry_cell_setting 'hexagonal'
loop_
_space_group_symop_operation_xyz
x,y,z
x-y,x,1/2+z
-y,x-y,z
-x,-y,1/2+z
-x+y,-x,z
y,-x+y,1/2+z
loop_
_atom_site_type_symbol
_atom_site_label
_atom_site_fract_x
_atom_site_fract_y
_atom_site_fract_z
Si Si1 0.997593 0.313395 0.559990
Si Si2 0.355679 0.994803 0.932578
Si Si3 0.415433 0.522950 0.346300
Si Si4 0.894611 0.447302 0.262095
Si Si5 0.315801 0.313395 0.964201
Si Si6 0.639126 0.994803 0.591613
Si Si7 0.415428 0.892482 0.177891
O O1 0.999999 0.264512 0.512095
O O2 0.019938 0.505213 0.562423
O O3 0.160995 0.320701 0.583409
O O4 0.814823 0.175500 0.580997
O O5 0.425257 0.993741 0.886254
O O6 0.360677 0.175500 0.943194
O O7 0.494786 0.980061 0.961769
O O8 0.160995 0.840294 0.940782
O O9 0.519312 0.734033 0.348306
O O10 0.474268 0.481690 0.303201
O O11 0.760966 0.521927 0.262095
O O12 0.007429 0.481686 0.220990
O O13 0.568488 0.993739 0.637938
O O14 0.214717 0.734028 0.175884
#
# Coordination Sequence:
#
# PCOD9581069 Si02
#       7
#     6   6   6   6   6   6   6
#     4  12  24  42  64  95 135 178 232 290 348 410
#     4  12  25  43  67  99 133 185 232 288 352 424
#     4  10  21  44  68  93 134 182 222 272 352 411
#     4  10  24  36  68 106 130 162 226 278 334 416
#     4  12  24  42  64  95 135 178 232 290 348 410
#     4  12  25  43  67  99 133 185 232 288 352 424
#     4  10  21  44  68  93 134 182 222 272 352 411
#
# _framework density 19.26071
#
# number of rings (size 3 to 8) (size 9 to 14) (size 15 to 20)
#    0.857    0.000    2.857    5.143    4.000    0.000 
#    0.000    0.000    0.000    4.571    0.000    0.000 
#    0.000    0.000    0.000    0.000    0.000    0.000 
#
# Total GULP energy -234320.243946 kJ/mol
# GULP energy per Si atom -5579.053427 kJ/mol
# Density = 1.921687 g / cm^3
# Si number density = 19.260710 Si / 1000 Ang^3
#
#
#
# Elastic Constant Matrix: (Units=GPa)
#
#
# Indices 1 2 3 4 5 6 
#
# 1 62.6987 -0.9288 30.4199 0.0000 0.0000 0.0000
# 2 -0.9288 62.6987 30.4199 0.0000 0.0000 0.0000
# 3 30.4199 30.4199 186.4485 0.0000 0.0000 0.0000
# 4 0.0000 0.0000 0.0000 32.0978 0.0000 0.0000
# 5 0.0000 0.0000 0.0000 0.0000 32.0978 0.0000
# 6 0.0000 0.0000 0.0000 0.0000 0.0000 31.8137
#
#
#
# Elastic Compliance Matrix: (Units=1/GPa)
#
#
# Indices 1 2 3 4 5 6 
#
# 1 0.017503 0.001786 -0.003147 0.000000 0.000000 0.000000
# 2 0.001786 0.017503 -0.003147 0.000000 0.000000 0.000000
# 3 -0.003147 -0.003147 0.006390 0.000000 0.000000 0.000000
# 4 0.000000 0.000000 0.000000 0.031155 0.000000 0.000000
# 5 0.000000 0.000000 0.000000 0.000000 0.031155 0.000000
# 6 0.000000 0.000000 0.000000 0.000000 0.000000 0.031433
#
#
# Mechanical properties :
#
#
# Convention : Reuss Voigt Hill
#
# Bulk Modulus (GPa) = 30.88356 47.96312 39.42334
# Shear Modulus (GPa) = 32.26903 35.99751 34.13327
#
# Velocity S-wave (km/s) = 4.09758 4.32784 4.21428
# Velocity P-wave (km/s) = 6.20131 7.06609 6.64778
#
# Compressibility (1/GPa) = 0.03237968
#
# Stress axis : x y z
#
# Youngs Moduli (GPa) = 57.13426 57.13426 156.48657
#
# Poissons Ratio (x) = -0.10205 0.49247
# Poissons Ratio (y) = -0.10205 0.49247
# Poissons Ratio (z) = 0.17980 0.17980
#
# Static dielectric constant tensor:
#      x y z
#    x 1.676630 0.000000 0.000000 
#    y 0.000000 1.676630 0.000000 
#    z 0.000000 0.000000 1.697860 
# 
# From -- ./inp_files/1516.got.cif
#   From: 2010.05.17/outbox.cif.g08.bks.cpg/sg173_cif.got.tgz:1516.got - 2010.05.20 11:21:53.
