data_PCOD9581022
_publ_section_title
;
Structure prediction by ZEFSAII (Michael W. Deem and Ramdas Pophale) SiO2 
 PCOD9581022
Probable space group: P 63
;
_chemical_formula_sum "Si O2"
_cell_formula_units_Z 42
_cell_length_a 21.393751
_cell_length_b 21.393751
_cell_length_c 5.520605
_cell_angle_alpha 90.000000
_cell_angle_beta 90.000000
_cell_angle_gamma 120.000000
_cell_volume 2188.220991
_symmetry_space_group_name_H-M "P 63"
_symmetry_group_IT_number 173
_symmetry_cell_setting 'hexagonal'
loop_
_space_group_symop_operation_xyz
x,y,z
x-y,x,1/2+z
-y,x-y,z
-x,-y,1/2+z
-x+y,-x,z
y,-x+y,1/2+z
loop_
_atom_site_type_symbol
_atom_site_label
_atom_site_fract_x
_atom_site_fract_y
_atom_site_fract_z
Si Si1 0.348763 0.348715 0.614670
Si Si2 0.085548 0.841446 0.105893
Si Si3 0.263113 0.872703 0.458351
Si Si4 0.926070 0.404113 0.492136
Si Si5 0.263122 0.390393 0.271223
Si Si6 0.755912 0.841371 0.623717
Si Si7 0.595846 0.073942 0.237200
O O1 0.345511 0.283168 0.765734
O O2 0.370119 0.414839 0.795472
O O3 0.283226 0.345458 0.463516
O O4 0.414944 0.370171 0.434050
O O5 0.109797 0.781132 0.073783
O O6 0.119309 0.880724 0.364854
O O7 0.000042 0.802162 0.114702
O O8 0.110895 0.889223 0.864854
O O9 0.206818 0.793124 0.364991
O O10 0.218958 0.890311 0.655787
O O11 0.338668 0.882277 0.551246
O O12 0.882286 0.338656 0.678178
O O13 0.888791 0.444354 0.364568
O O14 0.999997 0.465930 0.614660
#
# Coordination Sequence:
#
# PCOD9581022 Si02
#       7
#     6   6   6   6   6   6   6
#     4  10  20  36  58  82 130 152 202 250 314 374
#     4  11  24  40  63  89 127 168 212 261 326 392
#     4  10  24  34  58  87 131 162 204 253 322 387
#     4  10  19  34  56  85 121 158 200 253 314 376
#     4  10  24  34  58  87 131 162 204 253 322 387
#     4  11  24  40  63  89 127 168 212 261 326 392
#     4  10  19  34  56  85 121 158 200 253 314 376
#
# _framework density 19.193671999999999
#
# number of rings (size 3 to 8) (size 9 to 14) (size 15 to 20)
#    0.000    1.714    1.429    3.429   16.000    0.000 
#    0.000    0.000    0.000    5.714    0.000    0.000 
#   28.571    0.000    0.000    0.000    0.000    0.000 
#
# Total GULP energy -234234.103602 kJ/mol
# GULP energy per Si atom -5577.002467 kJ/mol
# Density = 1.914999 g / cm^3
# Si number density = 19.193672 Si / 1000 Ang^3
#
#
#
# Elastic Constant Matrix: (Units=GPa)
#
#
# Indices 1 2 3 4 5 6 
#
# 1 105.9448 57.1142 37.3191 0.0000 0.0000 0.0000
# 2 57.1142 105.9448 37.3191 0.0000 0.0000 0.0000
# 3 37.3191 37.3191 82.4962 0.0000 0.0000 0.0000
# 4 0.0000 0.0000 0.0000 28.6512 0.0000 0.0000
# 5 0.0000 0.0000 0.0000 0.0000 28.6512 0.0000
# 6 0.0000 0.0000 0.0000 0.0000 0.0000 24.4153
#
#
#
# Elastic Compliance Matrix: (Units=1/GPa)
#
#
# Indices 1 2 3 4 5 6 
#
# 1 0.014107 -0.006372 -0.003499 0.000000 0.000000 0.000000
# 2 -0.006372 0.014107 -0.003499 0.000000 0.000000 0.000000
# 3 -0.003499 -0.003499 0.015287 0.000000 0.000000 0.000000
# 4 0.000000 0.000000 0.000000 0.034903 0.000000 0.000000
# 5 0.000000 0.000000 0.000000 0.000000 0.034903 0.000000
# 6 0.000000 0.000000 0.000000 0.000000 0.000000 0.040958
#
#
# Mechanical properties :
#
#
# Convention : Reuss Voigt Hill
#
# Bulk Modulus (GPa) = 59.66335 61.98784 60.82559
# Shear Modulus (GPa) = 26.79668 27.18576 26.99122
#
# Velocity S-wave (km/s) = 3.74052 3.76758 3.75408
# Velocity P-wave (km/s) = 7.05746 7.16187 7.10985
#
# Compressibility (1/GPa) = 0.01676071
#
# Stress axis : x y z
#
# Youngs Moduli (GPa) = 70.88874 70.88874 65.41390
#
# Poissons Ratio (x) = 0.45173 0.22887
# Poissons Ratio (y) = 0.45173 0.22887
# Poissons Ratio (z) = 0.24802 0.24802
#
# Static dielectric constant tensor:
#      x y z
#    x 1.687020 0.000000 0.000000 
#    y 0.000000 1.687020 0.000000 
#    z 0.000000 0.000000 1.812960 
# 
# From -- ./inp_files/173.got.cif
#   From: 2010.05.17/outbox.cif.g08.bks.cpg/sg173_cif.got.tgz:173.got - 2010.05.20 11:21:53.
