data_PCOD9581218
_publ_section_title
;
Structure prediction by ZEFSAII (Michael W. Deem and Ramdas Pophale) SiO2 
 PCOD9581218
Probable space group: P -6
;
_chemical_formula_sum "Si O2"
_cell_formula_units_Z 35
_cell_length_a 11.171241
_cell_length_b 11.171241
_cell_length_c 15.485368
_cell_angle_alpha 90.000000
_cell_angle_beta 90.000000
_cell_angle_gamma 120.000000
_cell_volume 1673.612860
_symmetry_space_group_name_H-M "P -6"
_symmetry_group_IT_number 174
_symmetry_cell_setting 'hexagonal'
loop_
_space_group_symop_operation_xyz
x,y,z
-x+y,-x,-z
-y,x-y,z
x,y,-z
-x+y,-x,z
-y,x-y,-z
loop_
_atom_site_type_symbol
_atom_site_label
_atom_site_fract_x
_atom_site_fract_y
_atom_site_fract_z
Si Si1 0.666668 0.333335 0.396170
Si Si2 0.278285 0.269101 0.284295
Si Si3 0.616026 0.681621 0.875232
Si Si4 0.012238 0.279522 0.314200
Si Si5 0.500521 0.486848 0.399497
Si Si6 0.609247 0.957542 0.904739
Si Si7 0.965634 0.139672 0.000000
O O1 0.666667 0.333334 0.500000
O O2 0.589536 0.415183 0.370369
O O3 0.120328 0.225814 0.304085
O O4 0.369146 0.411088 0.337322
O O5 0.318686 0.300113 0.182727
O O6 0.297331 0.143808 0.317681
O O7 0.637717 0.674875 0.774511
O O8 0.577195 0.798801 0.900014
O O9 0.493483 0.532212 0.899706
O O10 0.765911 0.738622 0.919958
O O11 0.043101 0.393929 0.386690
O O12 0.461740 0.456093 0.500000
O O13 0.665702 0.020636 0.000000
O O14 0.865231 0.974971 0.000000
#
# Coordination Sequence:
#
# PCOD9581218 Si02
#       7
#     2   6   6   6   6   6   3
#     4   9  18  36  72  99 118 161 220 270 324 402
#     4  11  25  43  66  99 138 177 225 270 336 403
#     4  11  22  38  62  91 129 175 221 278 324 381
#     4  11  25  42  64  99 137 177 217 277 331 402
#     4  11  22  43  71  98 127 167 222 279 338 403
#     4  11  21  38  61  94 128 174 227 275 326 379
#     4  10  24  36  58  96 134 176 224 266 318 396
#
# _framework density 20.912842999999999
#
# number of rings (size 3 to 8) (size 9 to 14) (size 15 to 20)
#    0.171    1.029    5.143    0.686    4.800    0.686 
#    1.029    0.000    0.000    2.057    0.000    0.000 
#    0.000    0.000    0.000    0.000    0.000    0.000 
#
# Total GULP energy -195135.421886 kJ/mol
# GULP energy per Si atom -5575.297768 kJ/mol
# Density = 2.086524 g / cm^3
# Si number density = 20.912843 Si / 1000 Ang^3
#
#
#
# Elastic Constant Matrix: (Units=GPa)
#
#
# Indices 1 2 3 4 5 6 
#
# 1 70.6762 18.0801 14.5315 0.0000 0.0000 0.0001
# 2 18.0801 70.6759 14.5317 0.0000 0.0000 0.0001
# 3 14.5315 14.5317 87.2646 0.0000 0.0000 0.0000
# 4 0.0000 0.0000 0.0000 24.1730 0.0001 0.0000
# 5 0.0000 0.0000 0.0000 0.0001 24.1730 0.0000
# 6 0.0001 0.0001 0.0000 0.0000 0.0000 26.2981
#
#
#
# Elastic Compliance Matrix: (Units=1/GPa)
#
#
# Indices 1 2 3 4 5 6 
#
# 1 0.015465 -0.003548 -0.001984 0.000000 0.000000 0.000000
# 2 -0.003548 0.015465 -0.001984 0.000000 0.000000 0.000000
# 3 -0.001984 -0.001984 0.012120 0.000000 0.000000 0.000000
# 4 0.000000 0.000000 0.000000 0.041369 0.000000 0.000000
# 5 0.000000 0.000000 0.000000 0.000000 0.041368 0.000000
# 6 0.000000 0.000000 0.000000 0.000000 0.000000 0.038026
#
#
# Mechanical properties :
#
#
# Convention : Reuss Voigt Hill
#
# Bulk Modulus (GPa) = 35.69396 35.87814 35.78605
# Shear Modulus (GPa) = 26.56961 27.02702 26.79832
#
# Velocity S-wave (km/s) = 3.56826 3.59885 3.58359
# Velocity P-wave (km/s) = 5.83795 5.87045 5.85423
#
# Compressibility (1/GPa) = 0.02801595
#
# Stress axis : x y z
#
# Youngs Moduli (GPa) = 64.66337 64.66300 82.50620
#
# Poissons Ratio (x) = 0.22943 0.16372
# Poissons Ratio (y) = 0.22943 0.16373
# Poissons Ratio (z) = 0.12832 0.12832
#
# Static dielectric constant tensor:
#      x y z
#    x 1.773540 0.000000 0.000000 
#    y 0.000000 1.773540 0.000000 
#    z 0.000000 0.000000 1.860410 
# 
# From -- ./inp_files/904.got.cif
#   From: 2010.05.17/outbox.cif.g08.bks.cpg/sg174_cif.got.tgz:904.got - 2010.05.20 11:22:48.
