data_PCOD9581525
_publ_section_title
;
Structure prediction by ZEFSAII (Michael W. Deem and Ramdas Pophale) SiO2 
 PCOD9581525
Probable space group: P 6/M
;
_chemical_formula_sum "Si O2"
_cell_formula_units_Z 60
_cell_length_a 15.118403
_cell_length_b 15.118403
_cell_length_c 14.104855
_cell_angle_alpha 90.000000
_cell_angle_beta 90.000000
_cell_angle_gamma 120.000000
_cell_volume 2791.972223
_symmetry_space_group_name_H-M "P 6/M"
_symmetry_group_IT_number 175
_symmetry_cell_setting 'hexagonal'
loop_
_space_group_symop_operation_xyz
x,y,z
x-y,x,z
-y,x-y,z
-x,-y,z
-x+y,-x,z
y,-x+y,z
-x,-y,-z
-x+y,-x,-z
y,-x+y,-z
x,y,-z
x-y,x,-z
-y,x-y,-z
loop_
_atom_site_type_symbol
_atom_site_label
_atom_site_fract_x
_atom_site_fract_y
_atom_site_fract_z
Si Si1 0.337793 0.166751 0.387251
Si Si2 0.227369 0.073238 0.794171
Si Si3 0.561910 0.805615 0.114214
Si Si4 0.600835 0.998254 0.386563
Si Si5 0.468776 0.581758 0.114743
O O1 0.314629 0.158015 0.500000
O O2 0.243708 0.095257 0.318699
O O3 0.379206 0.285836 0.358780
O O4 0.406287 0.111956 0.371140
O O5 0.189335 0.149663 0.825904
O O6 0.337127 0.107372 0.838198
O O7 0.541705 0.695997 0.147151
O O8 0.463900 0.814946 0.139819
O O9 0.573242 0.814547 0.000000
O O10 0.601407 0.009950 0.500000
O O11 0.500000 0.000000 0.351349
O O12 0.500000 0.500000 0.144038
O O13 0.473849 0.586731 0.000000
#
# Coordination Sequence:
#
# PCOD9581525 Si02
#       5
#    12  12  12  12  12
#     4  10  20  39  64  88 121 164 209 262 321 370
#     4  12  25  41  60  87 118 161 211 266 317 368
#     4  10  21  39  62  89 121 155 194 245 308 373
#     4   9  18  36  62  89 120 160 205 257 318 387
#     4   9  17  33  58  84 110 145 187 232 283 349
#
# _framework density 21.490183999999999
#
# number of rings (size 3 to 8) (size 9 to 14) (size 15 to 20)
#    0.000    2.000    2.000    1.800    0.000    4.000 
#    4.800    0.000    0.000    2.400    0.000    0.000 
#    0.000    0.000    0.000    0.000    0.000    0.000 
#
# Total GULP energy -334649.848071 kJ/mol
# GULP energy per Si atom -5577.497468 kJ/mol
# Density = 2.144127 g / cm^3
# Si number density = 21.490184 Si / 1000 Ang^3
#
#
#
# Elastic Constant Matrix: (Units=GPa)
#
#
# Indices 1 2 3 4 5 6 
#
# 1 80.5702 7.1239 1.4851 0.0000 0.0000 0.0000
# 2 7.1239 80.5702 1.4851 0.0000 0.0000 0.0000
# 3 1.4851 1.4851 62.1153 0.0000 0.0000 0.0000
# 4 0.0000 0.0000 0.0000 1.7801 0.0000 0.0000
# 5 0.0000 0.0000 0.0000 0.0000 1.7801 0.0000
# 6 0.0000 0.0000 0.0000 0.0000 0.0000 36.7231
#
#
#
# Elastic Compliance Matrix: (Units=1/GPa)
#
#
# Indices 1 2 3 4 5 6 
#
# 1 0.012514 -0.001101 -0.000273 0.000000 0.000000 0.000000
# 2 -0.001101 0.012514 -0.000273 0.000000 0.000000 0.000000
# 3 -0.000273 -0.000273 0.016112 0.000000 0.000000 0.000000
# 4 0.000000 0.000000 0.000000 0.561765 0.000000 0.000000
# 5 0.000000 0.000000 0.000000 0.000000 0.561765 0.000000
# 6 0.000000 0.000000 0.000000 0.000000 0.000000 0.027231
#
#
# Mechanical properties :
#
#
# Convention : Reuss Voigt Hill
#
# Bulk Modulus (GPa) = 26.42306 27.04933 26.73620
# Shear Modulus (GPa) = 4.13973 22.26745 13.20359
#
# Velocity S-wave (km/s) = 1.38943 3.22245 2.48140
# Velocity P-wave (km/s) = 3.85955 5.14390 4.54730
#
# Compressibility (1/GPa) = 0.03784573
#
# Stress axis : x y z
#
# Youngs Moduli (GPa) = 79.91081 79.91081 62.06503
#
# Poissons Ratio (x) = 0.08802 0.01693
# Poissons Ratio (y) = 0.08802 0.01693
# Poissons Ratio (z) = 0.02180 0.02180
#
# Static dielectric constant tensor:
#      x y z
#    x 1.770470 0.000000 0.000000 
#    y 0.000000 1.770470 0.000000 
#    z 0.000000 0.000000 1.799750 
# 
# From -- ./inp_files/2371.got.cif
#   From: 2010.05.17/outbox.cif.g08.bks.cpg/sg175_2_cif.got.tgz:2371.got - 2010.05.20 11:23:22.
