data_PCOD9581199
_publ_section_title
;
Structure prediction by ZEFSAII (Michael W. Deem and Ramdas Pophale) SiO2 
 PCOD9581199
Probable space group: P -6
;
_chemical_formula_sum "Si O2"
_cell_formula_units_Z 26
_cell_length_a 10.885501
_cell_length_b 10.885501
_cell_length_c 11.211573
_cell_angle_alpha 90.000000
_cell_angle_beta 90.000000
_cell_angle_gamma 120.000000
_cell_volume 1150.519608
_symmetry_space_group_name_H-M "P -6"
_symmetry_group_IT_number 174
_symmetry_cell_setting 'hexagonal'
loop_
_space_group_symop_operation_xyz
x,y,z
-x+y,-x,-z
-y,x-y,z
x,y,-z
-x+y,-x,z
-y,x-y,-z
loop_
_atom_site_type_symbol
_atom_site_label
_atom_site_fract_x
_atom_site_fract_y
_atom_site_fract_z
Si Si1 0.402609 0.398366 0.128084
Si Si2 0.875814 0.284275 0.202395
Si Si3 0.001272 0.161616 0.367154
Si Si4 0.170092 0.664446 0.632756
Si Si5 0.666668 0.333335 0.639236
O O1 0.569955 0.514910 0.131279
O O2 0.391557 0.245272 0.135933
O O3 0.342636 0.427186 0.249850
O O4 0.341998 0.410043 0.000000
O O5 0.987070 0.247703 0.260636
O O6 0.790113 0.308964 0.308978
O O7 0.000484 0.215899 0.500000
O O8 0.131933 0.131891 0.359747
O O9 0.202853 0.533955 0.636796
O O10 0.109741 0.661181 0.500000
O O11 0.666667 0.333334 0.500000
#
# Coordination Sequence:
#
# PCOD9581199 Si02
#       5
#     6   6   6   6   2
#     4  11  23  38  59  83 114 155 192 233 281 335
#     4  10  21  35  53  79 114 152 192 232 283 334
#     4   8  17  34  55  82 115 152 188 228 280 337
#     4   8  19  41  62  86 116 145 181 232 293 342
#     4   9  18  30  49  80 112 144 190 245 286 330
#
# _framework density 22.598486999999999
#
# number of rings (size 3 to 8) (size 9 to 14) (size 15 to 20)
#    0.923    1.846    0.000    1.846    0.000    8.308 
#    0.000    4.615    0.000    4.154    0.000    0.000 
#    0.000    0.000    0.000    0.000    0.000    0.000 
#
# Total GULP energy -145070.449746 kJ/mol
# GULP energy per Si atom -5579.632683 kJ/mol
# Density = 2.254705 g / cm^3
# Si number density = 22.598487 Si / 1000 Ang^3
#
#
#
# Elastic Constant Matrix: (Units=GPa)
#
#
# Indices 1 2 3 4 5 6 
#
# 1 61.5039 14.4685 35.5485 0.0000 0.0000 -0.0002
# 2 14.4685 61.5039 35.5485 0.0000 0.0000 -0.0001
# 3 35.5485 35.5485 183.5403 0.0000 0.0000 -0.0002
# 4 0.0000 0.0000 0.0000 -10.5989 0.0002 0.0000
# 5 0.0000 0.0000 0.0000 0.0002 -10.5987 0.0000
# 6 -0.0002 -0.0001 -0.0002 0.0000 0.0000 23.5178
#
#
#
# Elastic Compliance Matrix: (Units=1/GPa)
#
#
# Indices 1 2 3 4 5 6 
#
# 1 0.018669 -0.002592 -0.003114 0.000000 0.000000 0.000000
# 2 -0.002592 0.018669 -0.003114 0.000000 0.000000 0.000000
# 3 -0.003114 -0.003114 0.006655 0.000000 0.000000 0.000000
# 4 0.000000 0.000000 0.000000 -0.094349 -0.000002 0.000000
# 5 0.000000 0.000000 0.000000 -0.000002 -0.094351 0.000000
# 6 0.000000 0.000000 0.000000 0.000000 0.000000 0.042521
#
#
# Mechanical properties :
#
#
# Convention : Reuss Voigt Hill
#
# Bulk Modulus (GPa) = 37.94670 53.07547 45.51109
# Shear Modulus (GPa) = -65.99387 15.19621 -25.39883
#
# Velocity S-wave (km/s) = -5.40982 2.59597 -3.35612
# Velocity P-wave (km/s) = 4.71099 5.70286 2.27258
#
# Compressibility (1/GPa) = 0.02635276
#
# Stress axis : x y z
#
# Youngs Moduli (GPa) = 53.56593 53.56590 150.27303
#
# Poissons Ratio (x) = 0.13884 0.46791
# Poissons Ratio (y) = 0.13884 0.46791
# Poissons Ratio (z) = 0.16679 0.16679
#
# Static dielectric constant tensor:
#      x y z
#    x 1.883690 0.000000 0.000000 
#    y 0.000000 1.883690 0.000000 
#    z 0.000000 0.000000 1.815810 
# 
# From -- ./inp_files/664.got.cif
#   From: 2010.05.17/outbox.cif.g08.bks.cpg/sg174_cif.got.tgz:664.got - 2010.05.20 11:22:48.
