data_PCOD9582999
_publ_section_title
;
Structure prediction by ZEFSAII (Michael W. Deem and Ramdas Pophale) SiO2 
 PCOD9582999
Probable space group: P 61 2 2
;
_chemical_formula_sum "Si O2"
_cell_formula_units_Z 72
_cell_length_a 15.050845
_cell_length_b 15.050845
_cell_length_c 17.952128
_cell_angle_alpha 90.000000
_cell_angle_beta 90.000000
_cell_angle_gamma 120.000000
_cell_volume 3521.829560
_symmetry_space_group_name_H-M "P 61 2 2"
_symmetry_group_IT_number 178
_symmetry_cell_setting 'hexagonal'
loop_
_space_group_symop_operation_xyz
x,y,z
x-y,x,1/6+z
-y,x-y,1/3+z
-x,-y,1/2+z
-x+y,-x,2/3+z
y,-x+y,5/6+z
x-y,-y,-z
-x,-x+y,2/3-z
y,x,1/3-z
-y,-x,5/6-z
-x+y,y,1/2-z
x,x-y,1/6-z
loop_
_atom_site_type_symbol
_atom_site_label
_atom_site_fract_x
_atom_site_fract_y
_atom_site_fract_z
Si Si1 0.585419 0.010143 0.805450
Si Si2 0.099824 0.797268 0.062234
Si Si3 0.907170 0.953585 0.083334
Si Si4 0.884748 0.753965 0.046393
Si Si5 0.430480 0.215240 0.083334
Si Si6 0.424982 0.215815 0.499696
Si Si7 0.541721 0.440269 0.715919
O O1 0.501805 0.003610 0.750000
O O2 0.663774 0.128850 0.823358
O O3 0.643400 0.960342 0.762737
O O4 0.528712 0.944356 0.877665
O O5 0.163071 0.865005 0.132151
O O6 0.007911 0.821257 0.050928
O O7 0.162197 0.802769 0.989180
O O8 0.958215 0.958215 0.166667
O O9 0.845683 0.833708 0.062086
O O10 0.828973 0.665808 0.106836
O O11 0.500083 0.162621 0.068425
O O12 0.384636 0.192318 0.583334
O O13 0.505578 0.176262 0.487854
O O14 0.510736 0.510736 0.666667
#
# Coordination Sequence:
#
# PCOD9582999 Si02
#       7
#    12  12   6  12   6  12  12
#     4  11  23  47  72 100 146 188 233 303 367 425
#     4  11  25  46  69 102 138 196 240 292 362 433
#     4  12  26  43  66 106 142 188 240 295 352 424
#     4  11  25  45  71 102 144 188 233 298 363 429
#     4  12  30  47  74 102 146 196 246 305 352 452
#     4  11  25  45  75 109 140 184 239 300 370 439
#     4  12  26  49  74 109 145 190 247 306 369 440
#
# _framework density 20.443919000000001
#
# number of rings (size 3 to 8) (size 9 to 14) (size 15 to 20)
#    0.000    0.667    6.667    0.000    4.667    1.333 
#    3.000    0.000    0.000    0.000    0.000    0.000 
#    0.000    0.000    0.000    0.000    0.000    0.000 
#
# Total GULP energy -401788.742523 kJ/mol
# GULP energy per Si atom -5580.399202 kJ/mol
# Density = 2.039739 g / cm^3
# Si number density = 20.443919 Si / 1000 Ang^3
#
#
#
# Elastic Constant Matrix: (Units=GPa)
#
#
# Indices 1 2 3 4 5 6 
#
# 1 79.5051 10.2911 37.3176 0.0000 0.0000 0.0000
# 2 10.2911 79.5051 37.3176 0.0000 0.0000 0.0000
# 3 37.3176 37.3176 169.2154 0.0000 0.0000 0.0000
# 4 0.0000 0.0000 0.0000 -18.1353 0.0000 0.0000
# 5 0.0000 0.0000 0.0000 0.0000 -18.1353 0.0000
# 6 0.0000 0.0000 0.0000 0.0000 0.0000 34.6070
#
#
#
# Elastic Compliance Matrix: (Units=1/GPa)
#
#
# Indices 1 2 3 4 5 6 
#
# 1 0.014042 -0.000406 -0.003007 0.000000 0.000000 0.000000
# 2 -0.000406 0.014042 -0.003007 0.000000 0.000000 0.000000
# 3 -0.003007 -0.003007 0.007236 0.000000 0.000000 0.000000
# 4 0.000000 0.000000 0.000000 -0.055141 0.000000 0.000000
# 5 0.000000 0.000000 0.000000 0.000000 -0.055141 0.000000
# 6 0.000000 0.000000 0.000000 0.000000 0.000000 0.028896
#
#
# Mechanical properties :
#
#
# Convention : Reuss Voigt Hill
#
# Bulk Modulus (GPa) = 44.48609 55.34201 49.91405
# Shear Modulus (GPa) = -194.30524 15.88723 -89.20901
#
# Velocity S-wave (km/s) = -9.75958 2.79070 -6.61292
# Velocity P-wave (km/s) = 10.25631 6.12478 5.81717
#
# Compressibility (1/GPa) = 0.02247894
#
# Stress axis : x y z
#
# Youngs Moduli (GPa) = 71.21573 71.21573 138.19839
#
# Poissons Ratio (x) = 0.02892 0.41558
# Poissons Ratio (y) = 0.02892 0.41558
# Poissons Ratio (z) = 0.21416 0.21416
#
# Static dielectric constant tensor:
#      x y z
#    x 2.115000 0.000000 0.000000 
#    y 0.000000 2.115000 0.000000 
#    z 0.000000 0.000000 1.780480 
# 
# From -- ./inp_files/6826.got.cif
#   From: 2010.05.17/outbox.cif.g08.bks.cpg/sg178_4_cif.got.tgz:6826.got - 2010.05.20 11:30:59.
