data_PCOD9582753
_publ_section_title
;
Structure prediction by ZEFSAII (Michael W. Deem and Ramdas Pophale) SiO2 
 PCOD9582753
Probable space group: P 61 2 2
;
_chemical_formula_sum "Si O2"
_cell_formula_units_Z 42
_cell_length_a 23.895137
_cell_length_b 23.895137
_cell_length_c 5.020136
_cell_angle_alpha 90.000000
_cell_angle_beta 90.000000
_cell_angle_gamma 120.000000
_cell_volume 2482.362284
_symmetry_space_group_name_H-M "P 61 2 2"
_symmetry_group_IT_number 178
_symmetry_cell_setting 'hexagonal'
loop_
_space_group_symop_operation_xyz
x,y,z
x-y,x,1/6+z
-y,x-y,1/3+z
-x,-y,1/2+z
-x+y,-x,2/3+z
y,-x+y,5/6+z
x-y,-y,-z
-x,-x+y,2/3-z
y,x,1/3-z
-y,-x,5/6-z
-x+y,y,1/2-z
x,x-y,1/6-z
loop_
_atom_site_type_symbol
_atom_site_label
_atom_site_fract_x
_atom_site_fract_y
_atom_site_fract_z
Si Si1 0.311181 0.926777 0.587217
Si Si2 0.370327 0.740653 0.750000
Si Si3 0.520555 0.153287 0.618564
Si Si4 0.740008 0.147820 0.589726
O O1 0.361633 0.900747 0.549164
O O2 0.290233 0.912951 0.891178
O O3 0.341683 0.000000 0.500000
O O4 0.254675 0.879200 0.378827
O O5 0.386090 0.693045 0.583334
O O6 0.356692 0.786259 0.556927
O O7 0.563564 0.127127 0.750000
O O8 0.482703 0.171381 0.839220
O O9 0.797853 0.202148 0.416667
#
# Coordination Sequence:
#
# PCOD9582753 Si02
#       4
#    12   6  12  12
#     4  10  22  40  59  83 110 137 177 220 275 334
#     4  12  26  40  54  82 104 138 180 238 294 364
#     4  10  24  38  55  76 105 134 178 217 289 338
#     4  10  22  39  60  81 108 136 176 214 276 331
#
# _framework density 16.919367000000001
#
# number of rings (size 3 to 8) (size 9 to 14) (size 15 to 20)
#    1.714    0.000    0.000    4.286    0.000   11.429 
#    7.714    0.000    0.000    0.000    0.000    0.000 
#    0.000    0.000    0.000    0.000    0.000    0.000 
#
# Total GULP energy -233910.646669 kJ/mol
# GULP energy per Si atom -5569.301111 kJ/mol
# Density = 1.688086 g / cm^3
# Si number density = 16.919367 Si / 1000 Ang^3
#
#
#
# Elastic Constant Matrix: (Units=GPa)
#
#
# Indices 1 2 3 4 5 6 
#
# 1 -14.7314 90.6758 14.8910 0.0000 0.0000 0.0000
# 2 90.6758 -14.7314 14.8910 0.0000 0.0000 0.0000
# 3 14.8910 14.8910 91.1023 0.0000 0.0000 0.0000
# 4 0.0000 0.0000 0.0000 19.1705 0.0000 0.0000
# 5 0.0000 0.0000 0.0000 0.0000 19.1705 0.0000
# 6 0.0000 0.0000 0.0000 0.0000 0.0000 -52.7036
#
#
#
# Elastic Compliance Matrix: (Units=1/GPa)
#
#
# Indices 1 2 3 4 5 6 
#
# 1 0.002291 0.011778 -0.002300 0.000000 0.000000 0.000000
# 2 0.011778 0.002291 -0.002300 0.000000 0.000000 0.000000
# 3 -0.002300 -0.002300 0.011728 0.000000 0.000000 0.000000
# 4 0.000000 0.000000 0.000000 0.052163 0.000000 0.000000
# 5 0.000000 0.000000 0.000000 0.000000 0.052163 0.000000
# 6 0.000000 0.000000 0.000000 0.000000 0.000000 -0.018974
#
#
# Mechanical properties :
#
#
# Convention : Reuss Voigt Hill
#
# Bulk Modulus (GPa) = 32.60682 33.61723 33.11202
# Shear Modulus (GPa) = 51.26691 -6.79373 22.23659
#
# Velocity S-wave (km/s) = 5.51058 -2.00601 3.62922
# Velocity P-wave (km/s) = 7.73320 3.81402 6.09710
#
# Compressibility (1/GPa) = 0.03066843
#
# Stress axis : x y z
#
# Youngs Moduli (GPa) = 436.45840 436.45839 85.26276
#
# Poissons Ratio (x) = -5.14069 0.19608
# Poissons Ratio (y) = -5.14069 0.19608
# Poissons Ratio (z) = 1.00372 1.00372
#
# Static dielectric constant tensor:
#      x y z
#    x 1.572660 0.000000 0.000000 
#    y 0.000000 1.572660 0.000000 
#    z 0.000000 0.000000 1.665490 
# 
# From -- ./inp_files/964.got.cif
#   From: 2010.05.17/outbox.cif.g08.bks.cpg/sg178_1_cif.got.tgz:964.got - 2010.05.20 11:30:59.
