data_PCOD9582895
_publ_section_title
;
Structure prediction by ZEFSAII (Michael W. Deem and Ramdas Pophale) SiO2 
 PCOD9582895
Probable space group: P 61 2 2
;
_chemical_formula_sum "Si O2"
_cell_formula_units_Z 48
_cell_length_a 9.821618
_cell_length_b 9.821618
_cell_length_c 23.285897
_cell_angle_alpha 90.000000
_cell_angle_beta 90.000000
_cell_angle_gamma 120.000000
_cell_volume 1945.313861
_symmetry_space_group_name_H-M "P 61 2 2"
_symmetry_group_IT_number 178
_symmetry_cell_setting 'hexagonal'
loop_
_space_group_symop_operation_xyz
x,y,z
x-y,x,1/6+z
-y,x-y,1/3+z
-x,-y,1/2+z
-x+y,-x,2/3+z
y,-x+y,5/6+z
x-y,-y,-z
-x,-x+y,2/3-z
y,x,1/3-z
-y,-x,5/6-z
-x+y,y,1/2-z
x,x-y,1/6-z
loop_
_atom_site_type_symbol
_atom_site_label
_atom_site_fract_x
_atom_site_fract_y
_atom_site_fract_z
Si Si1 0.259455 0.614886 0.359471
Si Si2 0.208276 0.850376 0.539389
Si Si3 0.259059 0.014255 0.938989
Si Si4 0.371747 0.117706 0.328691
O O1 0.280559 0.719442 0.416667
O O2 0.182441 0.650615 0.305818
O O3 0.129701 0.439274 0.376008
O O4 0.439831 0.660313 0.347567
O O5 0.194505 0.867887 0.606587
O O6 0.062672 0.688925 0.517168
O O7 0.242106 0.000000 0.500000
O O8 0.267705 0.115609 0.883171
O O9 0.166285 0.833716 0.916667
O O10 0.173321 0.000000 0.000000
#
# Coordination Sequence:
#
# PCOD9582895 Si02
#       4
#    12  12  12  12
#     4  10  24  45  71 105 144 191 248 312 387 468
#     4  12  25  46  72 103 147 199 253 313 389 478
#     4  11  25  45  73 107 144 188 248 314 378 452
#     4  11  26  46  71 107 151 198 249 317 394 468
#
# _framework density 24.674683000000002
#
# number of rings (size 3 to 8) (size 9 to 14) (size 15 to 20)
#    0.000    1.000    0.000    5.250    0.000   19.000 
#    0.000    0.000    0.000    0.000    0.000    0.000 
#    0.000    0.000    0.000    0.000    0.000    0.000 
#
# Total GULP energy -267586.130654 kJ/mol
# GULP energy per Si atom -5574.711055 kJ/mol
# Density = 2.461852 g / cm^3
# Si number density = 24.674683 Si / 1000 Ang^3
#
#
#
# Elastic Constant Matrix: (Units=GPa)
#
#
# Indices 1 2 3 4 5 6 
#
# 1 68.2299 37.7188 40.7308 0.0000 0.0000 0.0000
# 2 37.7188 68.2299 40.7308 0.0000 0.0000 0.0000
# 3 40.7308 40.7308 216.7902 0.0000 0.0000 0.0000
# 4 0.0000 0.0000 0.0000 34.3142 0.0000 0.0000
# 5 0.0000 0.0000 0.0000 0.0000 34.3142 0.0000
# 6 0.0000 0.0000 0.0000 0.0000 0.0000 15.2555
#
#
#
# Elastic Compliance Matrix: (Units=1/GPa)
#
#
# Indices 1 2 3 4 5 6 
#
# 1 0.021904 -0.010871 -0.002073 0.000000 0.000000 0.000000
# 2 -0.010871 0.021904 -0.002073 0.000000 0.000000 0.000000
# 3 -0.002073 -0.002073 0.005392 0.000000 0.000000 0.000000
# 4 0.000000 0.000000 0.000000 0.029142 0.000000 0.000000
# 5 0.000000 0.000000 0.000000 0.000000 0.029142 0.000000
# 6 0.000000 0.000000 0.000000 0.000000 0.000000 0.065550
#
#
# Mechanical properties :
#
#
# Convention : Reuss Voigt Hill
#
# Bulk Modulus (GPa) = 52.17831 65.73457 58.95644
# Shear Modulus (GPa) = 23.87139 32.38141 28.12640
#
# Velocity S-wave (km/s) = 3.11375 3.62654 3.37989
# Velocity P-wave (km/s) = 5.84120 6.65087 6.25914
#
# Compressibility (1/GPa) = 0.01916505
#
# Stress axis : x y z
#
# Youngs Moduli (GPa) = 45.65462 45.65462 185.47318
#
# Poissons Ratio (x) = 0.49633 0.38444
# Poissons Ratio (y) = 0.49633 0.38444
# Poissons Ratio (z) = 0.09463 0.09463
#
# Static dielectric constant tensor:
#      x y z
#    x 1.990420 0.000000 0.000000 
#    y 0.000000 1.990420 0.000000 
#    z 0.000000 0.000000 2.084730 
# 
# From -- ./inp_files/7284.got.cif
#   From: 2010.05.17/outbox.cif.g08.bks.cpg/sg178_4_cif.got.tgz:7284.got - 2010.05.20 11:30:59.
