data_PCOD9582822
_publ_section_title
;
Structure prediction by ZEFSAII (Michael W. Deem and Ramdas Pophale) SiO2 
 PCOD9582822
Probable space group: P 61 2 2
;
_chemical_formula_sum "Si O2"
_cell_formula_units_Z 42
_cell_length_a 18.648326
_cell_length_b 18.648326
_cell_length_c 5.399425
_cell_angle_alpha 90.000000
_cell_angle_beta 90.000000
_cell_angle_gamma 120.000000
_cell_volume 1626.139690
_symmetry_space_group_name_H-M "P 61 2 2"
_symmetry_group_IT_number 178
_symmetry_cell_setting 'hexagonal'
loop_
_space_group_symop_operation_xyz
x,y,z
x-y,x,1/6+z
-y,x-y,1/3+z
-x,-y,1/2+z
-x+y,-x,2/3+z
y,-x+y,5/6+z
x-y,-y,-z
-x,-x+y,2/3-z
y,x,1/3-z
-y,-x,5/6-z
-x+y,y,1/2-z
x,x-y,1/6-z
loop_
_atom_site_type_symbol
_atom_site_label
_atom_site_fract_x
_atom_site_fract_y
_atom_site_fract_z
Si Si1 0.087297 0.760902 0.672908
Si Si2 0.932691 0.466346 0.083334
Si Si3 0.000000 0.628712 0.333334
Si Si4 0.761159 0.238842 0.416667
Si Si5 0.587072 0.412929 0.916667
Si Si6 0.905392 0.810784 0.750000
O O1 0.071618 0.720624 0.400784
O O2 0.153551 0.740180 0.786521
O O3 0.116593 0.858022 0.699629
O O4 0.000000 0.715399 0.833334
O O5 0.876528 0.436547 0.326618
O O6 0.010996 0.576727 0.553618
O O7 0.686142 0.224599 0.241898
O O8 0.871056 0.871056 0.666667
#
# Coordination Sequence:
#
# PCOD9582822 Si02
#       6
#    12   6   6   6   6   6
#     4  10  22  46  78 119 166 227 304 389 474 582
#     4  12  27  45  80 117 166 224 312 379 476 565
#     4  12  24  44  78 120 162 230 306 394 472 588
#     4  11  24  49  78 113 180 232 302 387 478 586
#     4  12  27  50  70 115 164 234 298 367 470 574
#     4   9  20  44  82 119 168 224 294 389 496 591
#
# _framework density 25.828039
#
# number of rings (size 3 to 8) (size 9 to 14) (size 15 to 20)
#    0.000    1.143    2.857    2.571    2.000    2.286 
#    5.143   11.429   12.571    0.000    0.000    0.000 
#    0.000    0.000    0.000    0.000    0.000    0.000 
#
# Total GULP energy -233962.749773 kJ/mol
# GULP energy per Si atom -5570.541661 kJ/mol
# Density = 2.576925 g / cm^3
# Si number density = 25.828039 Si / 1000 Ang^3
#
#
#
# Elastic Constant Matrix: (Units=GPa)
#
#
# Indices 1 2 3 4 5 6 
#
# 1 192.7135 78.6725 65.5665 0.0000 0.0000 0.0000
# 2 78.6725 192.7135 65.5665 0.0000 0.0000 0.0000
# 3 65.5665 65.5665 138.2024 0.0000 0.0000 0.0000
# 4 0.0000 0.0000 0.0000 54.5251 0.0000 0.0000
# 5 0.0000 0.0000 0.0000 0.0000 54.5251 0.0000
# 6 0.0000 0.0000 0.0000 0.0000 0.0000 57.0205
#
#
#
# Elastic Compliance Matrix: (Units=1/GPa)
#
#
# Indices 1 2 3 4 5 6 
#
# 1 0.006775 -0.001994 -0.002268 0.000000 0.000000 0.000000
# 2 -0.001994 0.006775 -0.002268 0.000000 0.000000 0.000000
# 3 -0.002268 -0.002268 0.009388 0.000000 0.000000 0.000000
# 4 0.000000 0.000000 0.000000 0.018340 0.000000 0.000000
# 5 0.000000 0.000000 0.000000 0.000000 0.018340 0.000000
# 6 0.000000 0.000000 0.000000 0.000000 0.000000 0.017538
#
#
# Mechanical properties :
#
#
# Convention : Reuss Voigt Hill
#
# Bulk Modulus (GPa) = 101.24607 104.80449 103.02528
# Shear Modulus (GPa) = 53.47139 54.13574 53.80356
#
# Velocity S-wave (km/s) = 4.55497 4.58318 4.56910
# Velocity P-wave (km/s) = 8.18223 8.28694 8.23475
#
# Compressibility (1/GPa) = 0.00987693
#
# Stress axis : x y z
#
# Youngs Moduli (GPa) = 147.60695 147.60695 106.52080
#
# Poissons Ratio (x) = 0.29433 0.24160
# Poissons Ratio (y) = 0.29433 0.24160
# Poissons Ratio (z) = 0.33479 0.33479
#
# Static dielectric constant tensor:
#      x y z
#    x 2.117010 0.000000 0.000000 
#    y 0.000000 2.117010 0.000000 
#    z 0.000000 0.000000 2.143620 
# 
# From -- ./inp_files/2496.got.cif
#   From: 2010.05.17/outbox.cif.g08.bks.cpg/sg178_2_cif.got.tgz:2496.got - 2010.05.20 11:30:59.
