data_PCOD9582571
_publ_section_title
;
Structure prediction by ZEFSAII (Michael W. Deem and Ramdas Pophale) SiO2 
 PCOD9582571
Probable space group: P 61 2 2
;
_chemical_formula_sum "Si O2"
_cell_formula_units_Z 54
_cell_length_a 19.398003
_cell_length_b 19.398003
_cell_length_c 9.649216
_cell_angle_alpha 90.000000
_cell_angle_beta 90.000000
_cell_angle_gamma 120.000000
_cell_volume 3144.392157
_symmetry_space_group_name_H-M "P 61 2 2"
_symmetry_group_IT_number 178
_symmetry_cell_setting 'hexagonal'
loop_
_space_group_symop_operation_xyz
x,y,z
x-y,x,1/6+z
-y,x-y,1/3+z
-x,-y,1/2+z
-x+y,-x,2/3+z
y,-x+y,5/6+z
x-y,-y,-z
-x,-x+y,2/3-z
y,x,1/3-z
-y,-x,5/6-z
-x+y,y,1/2-z
x,x-y,1/6-z
loop_
_atom_site_type_symbol
_atom_site_label
_atom_site_fract_x
_atom_site_fract_y
_atom_site_fract_z
Si Si1 0.828521 0.268835 0.796127
Si Si2 0.400433 0.400433 0.166667
Si Si3 0.562968 0.830563 0.466582
Si Si4 0.600297 0.000000 0.000000
Si Si5 0.617724 0.387484 0.753992
Si Si6 0.500417 0.000834 0.250000
O O1 0.779615 0.219860 0.664303
O O2 0.801772 0.335061 0.816737
O O3 0.923429 0.319044 0.783588
O O4 0.795286 0.204715 0.916667
O O5 0.319593 0.394962 0.115334
O O6 0.430177 0.462076 0.298114
O O7 0.599450 0.799725 0.583334
O O8 0.472134 0.802856 0.512736
O O9 0.539100 0.969474 0.132419
O O10 0.674203 0.348406 0.750000
O O11 0.602799 0.397202 0.916667
#
# Coordination Sequence:
#
# PCOD9582571 Si02
#       6
#    12   6  12   6  12   6
#     4  12  25  37  56  80 107 146 190 235 294 331
#     4  11  22  36  56  82 106 138 187 232 276 350
#     4  11  23  37  57  76 105 146 183 228 291 334
#     4  11  24  40  56  76 112 140 191 242 278 360
#     4  11  20  36  52  75 106 139 179 232 278 327
#     4  10  20  36  58  78 100 146 178 230 282 318
#
# _framework density 17.17343
#
# number of rings (size 3 to 8) (size 9 to 14) (size 15 to 20)
#    0.000    0.889    4.444    6.000    3.111    0.000 
#    0.000    0.000    0.000    0.000    0.000    0.000 
#    0.000    0.000    0.000   10.000    0.000    0.000 
#
# Total GULP energy -300693.224172 kJ/mol
# GULP energy per Si atom -5568.393040 kJ/mol
# Density = 1.713434 g / cm^3
# Si number density = 17.173430 Si / 1000 Ang^3
#
#
#
# Elastic Constant Matrix: (Units=GPa)
#
#
# Indices 1 2 3 4 5 6 
#
# 1 74.9637 68.0105 23.5268 0.0000 0.0000 0.0000
# 2 68.0105 74.9637 23.5268 0.0000 0.0000 0.0000
# 3 23.5268 23.5268 113.8497 0.0000 0.0000 0.0000
# 4 0.0000 0.0000 0.0000 19.4361 0.0000 0.0000
# 5 0.0000 0.0000 0.0000 0.0000 19.4361 0.0000
# 6 0.0000 0.0000 0.0000 0.0000 0.0000 3.4766
#
#
#
# Elastic Compliance Matrix: (Units=1/GPa)
#
#
# Indices 1 2 3 4 5 6 
#
# 1 0.075662 -0.068157 -0.001551 0.000000 0.000000 0.000000
# 2 -0.068157 0.075662 -0.001551 0.000000 0.000000 0.000000
# 3 -0.001551 -0.001551 0.009424 0.000000 0.000000 0.000000
# 4 0.000000 0.000000 0.000000 0.051451 0.000000 0.000000
# 5 0.000000 0.000000 0.000000 0.000000 0.051451 0.000000
# 6 0.000000 0.000000 0.000000 0.000000 0.000000 0.287638
#
#
# Mechanical properties :
#
#
# Convention : Reuss Voigt Hill
#
# Bulk Modulus (GPa) = 54.85318 54.87836 54.86577
# Shear Modulus (GPa) = 7.14407 18.38396 12.76402
#
# Velocity S-wave (km/s) = 2.04181 3.27538 2.72920
# Velocity P-wave (km/s) = 6.12933 6.80654 6.47679
#
# Compressibility (1/GPa) = 0.01823048
#
# Stress axis : x y z
#
# Youngs Moduli (GPa) = 13.21672 13.21672 106.10689
#
# Poissons Ratio (x) = 0.90081 0.16455
# Poissons Ratio (y) = 0.90081 0.16455
# Poissons Ratio (z) = 0.02050 0.02050
#
# Static dielectric constant tensor:
#      x y z
#    x 1.601340 0.000000 0.000000 
#    y 0.000000 1.601340 0.000000 
#    z 0.000000 0.000000 1.626800 
# 
# From -- ./inp_files/3081.got.cif
#   From: 2010.05.17/outbox.cif.g08.bks.cpg/sg178_2_cif.got.tgz:3081.got - 2010.05.20 11:30:59.
