data_PCOD9582145
_publ_section_title
;
Structure prediction by ZEFSAII (Michael W. Deem and Ramdas Pophale) SiO2 
 PCOD9582145
Probable space group: P 63/M
;
_chemical_formula_sum "Si O2"
_cell_formula_units_Z 48
_cell_length_a 14.043197
_cell_length_b 14.043197
_cell_length_c 13.861515
_cell_angle_alpha 90.000000
_cell_angle_beta 90.000000
_cell_angle_gamma 120.000000
_cell_volume 2367.409072
_symmetry_space_group_name_H-M "P 63/M"
_symmetry_group_IT_number 176
_symmetry_cell_setting 'hexagonal'
loop_
_space_group_symop_operation_xyz
x,y,z
x-y,x,1/2+z
-y,x-y,z
-x,-y,1/2+z
-x+y,-x,z
y,-x+y,1/2+z
-x,-y,-z
-x+y,-x,1/2-z
y,-x+y,-z
x,y,1/2-z
x-y,x,-z
-y,x-y,1/2-z
loop_
_atom_site_type_symbol
_atom_site_label
_atom_site_fract_x
_atom_site_fract_y
_atom_site_fract_z
Si Si1 0.619236 0.615759 0.136374
Si Si2 0.754229 0.554620 0.636191
Si Si3 0.753512 0.939661 0.498608
Si Si4 0.425318 0.803073 0.962230
O O1 0.621259 0.601640 0.250000
O O2 0.562593 0.689947 0.118869
O O3 0.739444 0.687294 0.089591
O O4 0.577467 0.498455 0.085248
O O5 0.731879 0.543141 0.750000
O O6 0.772900 0.668611 0.590868
O O7 0.655004 0.460529 0.574106
O O8 0.794226 0.854294 0.518703
O O9 0.296982 0.745958 0.933394
#
# Coordination Sequence:
#
# PCOD9582145 Si02
#       4
#    12  12  12  12
#     4   9  18  33  51  70  98 134 166 199 242 292
#     4   9  18  33  51  70  98 134 166 199 242 292
#     4   9  17  30  49  74 103 132 165 201 240 286
#     4   9  20  34  50  78  98 126 158 209 248 288
#
# _framework density 20.275328999999999
#
# number of rings (size 3 to 8) (size 9 to 14) (size 15 to 20)
#    0.500    2.500    0.000    0.250    0.000    4.000 
#    0.000    0.000    0.000    3.000    0.000    0.000 
#    0.000    0.000    0.000    0.000    0.000    0.000 
#
# Total GULP energy -267252.762169 kJ/mol
# GULP energy per Si atom -5567.765879 kJ/mol
# Density = 2.022918 g / cm^3
# Si number density = 20.275329 Si / 1000 Ang^3
#
#
#
# Elastic Constant Matrix: (Units=GPa)
#
#
# Indices 1 2 3 4 5 6 
#
# 1 64.3954 13.7833 27.9711 0.0000 0.0000 0.0000
# 2 13.7833 64.3954 27.9711 0.0000 0.0000 0.0000
# 3 27.9711 27.9711 88.3168 0.0000 0.0000 0.0000
# 4 0.0000 0.0000 0.0000 13.5735 0.0000 0.0000
# 5 0.0000 0.0000 0.0000 0.0000 13.5735 0.0000
# 6 0.0000 0.0000 0.0000 0.0000 0.0000 25.3060
#
#
#
# Elastic Compliance Matrix: (Units=1/GPa)
#
#
# Indices 1 2 3 4 5 6 
#
# 1 0.018149 -0.001609 -0.005238 0.000000 0.000000 0.000000
# 2 -0.001609 0.018149 -0.005238 0.000000 0.000000 0.000000
# 3 -0.005238 -0.005238 0.014641 0.000000 0.000000 0.000000
# 4 0.000000 0.000000 0.000000 0.073673 0.000000 0.000000
# 5 0.000000 0.000000 0.000000 0.000000 0.073673 0.000000
# 6 0.000000 0.000000 0.000000 0.000000 0.000000 0.039516
#
#
# Mechanical properties :
#
#
# Convention : Reuss Voigt Hill
#
# Bulk Modulus (GPa) = 37.35959 39.61762 38.48861
# Shear Modulus (GPa) = 18.45735 20.31609 19.38672
#
# Velocity S-wave (km/s) = 3.02045 3.16889 3.09556
# Velocity P-wave (km/s) = 5.53446 5.74207 5.63922
#
# Compressibility (1/GPa) = 0.02676689
#
# Stress axis : x y z
#
# Youngs Moduli (GPa) = 55.09993 55.09993 68.30155
#
# Poissons Ratio (x) = 0.08867 0.35778
# Poissons Ratio (y) = 0.08867 0.35778
# Poissons Ratio (z) = 0.28863 0.28863
#
# Static dielectric constant tensor:
#      x y z
#    x 1.745280 0.000000 0.000000 
#    y 0.000000 1.745280 0.000000 
#    z 0.000000 0.000000 1.700490 
# 
# From -- ./inp_files/1668.got.cif
#   From: 2010.05.17/outbox.cif.g08.bks.cpg/sg176_1_cif.got.tgz:1668.got - 2010.06.03 11:36:45.
