data_PCOD9582340
_publ_section_title
;
Structure prediction by ZEFSAII (Michael W. Deem and Ramdas Pophale) SiO2 
 PCOD9582340
Probable space group: P 61 2 2
;
_chemical_formula_sum "Si O2"
_cell_formula_units_Z 84
_cell_length_a 14.070598
_cell_length_b 14.070598
_cell_length_c 31.738709
_cell_angle_alpha 90.000000
_cell_angle_beta 90.000000
_cell_angle_gamma 120.000000
_cell_volume 5441.830367
_symmetry_space_group_name_H-M "P 61 2 2"
_symmetry_group_IT_number 178
_symmetry_cell_setting 'hexagonal'
loop_
_space_group_symop_operation_xyz
x,y,z
x-y,x,1/6+z
-y,x-y,1/3+z
-x,-y,1/2+z
-x+y,-x,2/3+z
y,-x+y,5/6+z
x-y,-y,-z
-x,-x+y,2/3-z
y,x,1/3-z
-y,-x,5/6-z
-x+y,y,1/2-z
x,x-y,1/6-z
loop_
_atom_site_type_symbol
_atom_site_label
_atom_site_fract_x
_atom_site_fract_y
_atom_site_fract_z
Si Si1 0.497664 0.423118 0.762608
Si Si2 0.633293 0.116551 0.488468
Si Si3 0.164247 0.549586 0.759196
Si Si4 0.335411 0.499422 0.337258
Si Si5 0.198108 0.705759 0.601922
Si Si6 0.406297 0.362896 0.915218
Si Si7 0.509168 0.252160 0.302873
O O1 0.571688 0.474607 0.721794
O O2 0.401384 0.451590 0.758845
O O3 0.571322 0.480509 0.803781
O O4 0.469665 0.297845 0.761737
O O5 0.571815 0.144898 0.525783
O O6 0.752868 0.219975 0.483785
O O7 0.621875 0.000000 0.500000
O O8 0.264785 0.529571 0.750000
O O9 0.193706 0.660712 0.733648
O O10 0.315019 0.411515 0.372948
O O11 0.384220 0.621507 0.357647
O O12 0.222152 0.611076 0.583334
O O13 0.193640 0.701401 0.653102
O O14 0.084238 0.683660 0.581299
O O15 0.520739 0.479262 0.916667
O O16 0.417738 0.288134 0.879257
#
# Coordination Sequence:
#
# PCOD9582340 Si02
#       7
#    12  12  12  12  12  12  12
#     4  10  21  30  45  70  99 131 165 198 248 300
#     4  10  19  30  45  67  97 130 160 191 240 302
#     4  11  19  32  49  68  98 132 165 197 246 307
#     4  10  16  31  47  68  98 126 162 198 246 296
#     4  10  20  32  47  72 105 128 164 210 251 291
#     4   9  17  29  48  71  94 131 166 202 245 303
#     4  10  17  30  50  69  95 135 161 196 256 292
#
# _framework density 15.435981999999999
#
# number of rings (size 3 to 8) (size 9 to 14) (size 15 to 20)
#    0.000    2.000    2.857    3.429    0.000    1.143 
#    0.000    0.000    0.000    0.000    0.000    0.000 
#    8.571    0.000    0.000    0.000    0.000    0.000 
#
# Total GULP energy -467611.174833 kJ/mol
# GULP energy per Si atom -5566.799700 kJ/mol
# Density = 1.540085 g / cm^3
# Si number density = 15.435982 Si / 1000 Ang^3
#
#
#
# Elastic Constant Matrix: (Units=GPa)
#
#
# Indices 1 2 3 4 5 6 
#
# 1 60.5069 25.8634 4.4495 0.0000 0.0000 0.0000
# 2 25.8634 60.5069 4.4495 0.0000 0.0000 0.0000
# 3 4.4495 4.4495 59.6926 0.0000 0.0000 0.0000
# 4 0.0000 0.0000 0.0000 17.8414 0.0000 0.0000
# 5 0.0000 0.0000 0.0000 0.0000 17.8414 0.0000
# 6 0.0000 0.0000 0.0000 0.0000 0.0000 17.3218
#
#
#
# Elastic Compliance Matrix: (Units=1/GPa)
#
#
# Indices 1 2 3 4 5 6 
#
# 1 0.020267 -0.008599 -0.000870 0.000000 0.000000 0.000000
# 2 -0.008599 0.020267 -0.000870 0.000000 0.000000 0.000000
# 3 -0.000870 -0.000870 0.016882 0.000000 0.000000 0.000000
# 4 0.000000 0.000000 0.000000 0.056049 0.000000 0.000000
# 5 0.000000 0.000000 0.000000 0.000000 0.056049 0.000000
# 6 0.000000 0.000000 0.000000 0.000000 0.000000 0.057731
#
#
# Mechanical properties :
#
#
# Convention : Reuss Voigt Hill
#
# Bulk Modulus (GPa) = 27.21929 27.80346 27.51138
# Shear Modulus (GPa) = 19.21839 20.33053 19.77446
#
# Velocity S-wave (km/s) = 3.53234 3.63311 3.58308
# Velocity P-wave (km/s) = 5.85735 5.97080 5.91435
#
# Compressibility (1/GPa) = 0.03673865
#
# Stress axis : x y z
#
# Youngs Moduli (GPa) = 49.34245 49.34245 59.23415
#
# Poissons Ratio (x) = 0.42429 0.05152
# Poissons Ratio (y) = 0.42429 0.05152
# Poissons Ratio (z) = 0.04291 0.04291
#
# Static dielectric constant tensor:
#      x y z
#    x 1.527140 0.000000 0.000000 
#    y 0.000000 1.527140 0.000000 
#    z 0.000000 0.000000 1.573080 
# 
# From -- ./inp_files/8975.got.cif
#   From: 2010.05.17/outbox.cif.g08.bks.cpg/sg178_5_cif.got.tgz:8975.got - 2010.05.20 11:30:59.
