data_PCOD9582393
_publ_section_title
;
Structure prediction by ZEFSAII (Michael W. Deem and Ramdas Pophale) SiO2 
 PCOD9582393
Probable space group: P 61 2 2
;
_chemical_formula_sum "Si O2"
_cell_formula_units_Z 54
_cell_length_a 26.734360
_cell_length_b 26.734360
_cell_length_c 5.335553
_cell_angle_alpha 90.000000
_cell_angle_beta 90.000000
_cell_angle_gamma 120.000000
_cell_volume 3302.551918
_symmetry_space_group_name_H-M "P 61 2 2"
_symmetry_group_IT_number 178
_symmetry_cell_setting 'hexagonal'
loop_
_space_group_symop_operation_xyz
x,y,z
x-y,x,1/6+z
-y,x-y,1/3+z
-x,-y,1/2+z
-x+y,-x,2/3+z
y,-x+y,5/6+z
x-y,-y,-z
-x,-x+y,2/3-z
y,x,1/3-z
-y,-x,5/6-z
-x+y,y,1/2-z
x,x-y,1/6-z
loop_
_atom_site_type_symbol
_atom_site_label
_atom_site_fract_x
_atom_site_fract_y
_atom_site_fract_z
Si Si1 0.113866 0.113866 0.666667
Si Si2 0.070267 0.506293 0.335830
Si Si3 0.269779 0.337321 0.649566
Si Si4 0.319478 0.390210 0.155459
Si Si5 0.917149 0.769727 0.503960
O O1 0.104921 0.052461 0.583334
O O2 0.166406 0.139448 0.868333
O O3 0.089724 0.544862 0.583334
O O4 0.086438 0.456259 0.360690
O O5 0.000000 0.472049 0.333334
O O6 0.088860 0.544430 0.083334
O O7 0.316862 0.316862 0.666667
O O8 0.287318 0.380728 0.418539
O O9 0.211043 0.280812 0.565478
O O10 0.275471 0.366070 0.920497
O O11 0.352057 0.352057 0.166667
O O12 0.887407 0.774813 0.250000
O O13 0.878048 0.756096 0.750000
#
# Coordination Sequence:
#
# PCOD9582393 Si02
#       5
#     6  12  12  12  12
#     4  10  24  42  60  80  98 116 138 172 236 334
#     4   9  15  23  35  56  87 119 152 184 214 244
#     4  10  18  32  47  65  88 112 146 185 228 280
#     4   9  17  26  43  63  86 119 151 182 220 257
#     4  11  23  38  56  75  93 115 143 184 242 304
#
# _framework density 16.350992000000002
#
# number of rings (size 3 to 8) (size 9 to 14) (size 15 to 20)
#    0.000    2.222    1.111    2.667    0.000    9.778 
#    0.000    0.000    0.000    0.000    0.000    0.000 
#    0.000    0.000    0.000    0.000    0.000    0.000 
#
# Total GULP energy -300623.007393 kJ/mol
# GULP energy per Si atom -5567.092730 kJ/mol
# Density = 1.631378 g / cm^3
# Si number density = 16.350992 Si / 1000 Ang^3
#
#
#
# Elastic Constant Matrix: (Units=GPa)
#
#
# Indices 1 2 3 4 5 6 
#
# 1 40.8854 46.9501 42.6288 0.0000 0.0000 0.0000
# 2 46.9501 40.8854 42.6288 0.0000 0.0000 0.0000
# 3 42.6288 42.6288 153.0427 0.0000 0.0000 0.0000
# 4 0.0000 0.0000 0.0000 18.1975 0.0000 0.0000
# 5 0.0000 0.0000 0.0000 0.0000 18.1975 0.0000
# 6 0.0000 0.0000 0.0000 0.0000 0.0000 -3.0324
#
#
#
# Elastic Compliance Matrix: (Units=1/GPa)
#
#
# Indices 1 2 3 4 5 6 
#
# 1 -0.074642 0.090246 -0.004346 0.000000 0.000000 0.000000
# 2 0.090246 -0.074642 -0.004346 0.000000 0.000000 0.000000
# 3 -0.004346 -0.004346 0.008955 0.000000 0.000000 0.000000
# 4 0.000000 0.000000 0.000000 0.054953 0.000000 0.000000
# 5 0.000000 0.000000 0.000000 0.000000 0.054953 0.000000
# 6 0.000000 0.000000 0.000000 0.000000 0.000000 -0.329776
#
#
# Mechanical properties :
#
#
# Convention : Reuss Voigt Hill
#
# Bulk Modulus (GPa) = 43.90291 55.46989 49.68640
# Shear Modulus (GPa) = -9.69528 13.51292 1.90882
#
# Velocity S-wave (km/s) = -2.43769 2.87788 1.08164
# Velocity P-wave (km/s) = 4.35723 6.71127 5.65803
#
# Compressibility (1/GPa) = 0.02277753
#
# Stress axis : x y z
#
# Youngs Moduli (GPa) = -13.39723 -13.39723 111.66511
#
# Poissons Ratio (x) = 1.20904 0.48532
# Poissons Ratio (y) = 1.20904 0.48532
# Poissons Ratio (z) = -0.05823 -0.05823
#
# Static dielectric constant tensor:
#      x y z
#    x 1.573340 0.000000 0.000000 
#    y 0.000000 1.573340 0.000000 
#    z 0.000000 0.000000 1.599970 
# 
# From -- ./inp_files/1185.got.cif
#   From: 2010.05.17/outbox.cif.g08.bks.cpg/sg178_1_cif.got.tgz:1185.got - 2010.05.20 11:30:59.
