data_PCOD9582479
_publ_section_title
;
Structure prediction by ZEFSAII (Michael W. Deem and Ramdas Pophale) SiO2 
 PCOD9582479
Probable space group: P 61 2 2
;
_chemical_formula_sum "Si O2"
_cell_formula_units_Z 42
_cell_length_a 18.313830
_cell_length_b 18.313830
_cell_length_c 7.631555
_cell_angle_alpha 90.000000
_cell_angle_beta 90.000000
_cell_angle_gamma 120.000000
_cell_volume 2216.675020
_symmetry_space_group_name_H-M "P 61 2 2"
_symmetry_group_IT_number 178
_symmetry_cell_setting 'hexagonal'
loop_
_space_group_symop_operation_xyz
x,y,z
x-y,x,1/6+z
-y,x-y,1/3+z
-x,-y,1/2+z
-x+y,-x,2/3+z
y,-x+y,5/6+z
x-y,-y,-z
-x,-x+y,2/3-z
y,x,1/3-z
-y,-x,5/6-z
-x+y,y,1/2-z
x,x-y,1/6-z
loop_
_atom_site_type_symbol
_atom_site_label
_atom_site_fract_x
_atom_site_fract_y
_atom_site_fract_z
Si Si1 0.825047 0.650094 0.750000
Si Si2 0.636631 0.537786 0.615063
Si Si3 0.379101 0.478992 0.698064
Si Si4 0.681283 0.778677 0.227679
O O1 0.730854 0.590086 0.681063
O O2 0.883666 0.702524 0.586973
O O3 0.591394 0.591394 0.666667
O O4 0.638354 0.528926 0.405452
O O5 0.576016 0.442344 0.684775
O O6 0.434689 0.434689 0.666667
O O7 0.291651 0.418964 0.602151
O O8 0.730853 0.730853 0.166667
O O9 0.694569 0.847285 0.083334
#
# Coordination Sequence:
#
# PCOD9582479 Si02
#       4
#     6  12  12  12
#     4  12  24  34  62  88 122 160 210 250 314 376
#     4  10  19  34  58  86 113 157 199 239 301 357
#     4   9  18  35  58  82 117 151 194 247 290 354
#     4  11  23  40  62  92 124 159 206 266 315 371
#
# _framework density 18.947296999999999
#
# number of rings (size 3 to 8) (size 9 to 14) (size 15 to 20)
#    0.000    1.714    2.857    3.429    0.000    3.429 
#    0.000    0.000    6.286    0.000    3.714    0.000 
#    0.000    0.000    0.000    0.000    0.000    0.000 
#
# Total GULP energy -234306.589856 kJ/mol
# GULP energy per Si atom -5578.728330 kJ/mol
# Density = 1.890417 g / cm^3
# Si number density = 18.947297 Si / 1000 Ang^3
#
#
#
# Elastic Constant Matrix: (Units=GPa)
#
#
# Indices 1 2 3 4 5 6 
#
# 1 72.7068 36.0769 25.4782 0.0000 0.0000 0.0000
# 2 36.0769 72.7068 25.4782 0.0000 0.0000 0.0000
# 3 25.4782 25.4782 103.5938 0.0000 0.0000 0.0000
# 4 0.0000 0.0000 0.0000 71.7067 0.0000 0.0000
# 5 0.0000 0.0000 0.0000 0.0000 71.7067 0.0000
# 6 0.0000 0.0000 0.0000 0.0000 0.0000 18.3150
#
#
#
# Elastic Compliance Matrix: (Units=1/GPa)
#
#
# Indices 1 2 3 4 5 6 
#
# 1 0.018845 -0.008455 -0.002555 0.000000 0.000000 0.000000
# 2 -0.008455 0.018845 -0.002555 0.000000 0.000000 0.000000
# 3 -0.002555 -0.002555 0.010910 0.000000 0.000000 0.000000
# 4 0.000000 0.000000 0.000000 0.013946 0.000000 0.000000
# 5 0.000000 0.000000 0.000000 0.000000 0.013946 0.000000
# 6 0.000000 0.000000 0.000000 0.000000 0.000000 0.054600
#
#
# Mechanical properties :
#
#
# Convention : Reuss Voigt Hill
#
# Bulk Modulus (GPa) = 46.58092 47.00823 46.79458
# Shear Modulus (GPa) = 30.23366 43.14394 36.68880
#
# Velocity S-wave (km/s) = 3.99892 4.77702 4.40518
# Velocity P-wave (km/s) = 6.77935 7.43575 7.11513
#
# Compressibility (1/GPa) = 0.02146802
#
# Stress axis : x y z
#
# Youngs Moduli (GPa) = 53.06512 53.06512 91.65928
#
# Poissons Ratio (x) = 0.44868 0.23421
# Poissons Ratio (y) = 0.44868 0.23421
# Poissons Ratio (z) = 0.13559 0.13559
#
# Static dielectric constant tensor:
#      x y z
#    x 1.634290 0.000000 0.000000 
#    y 0.000000 1.634290 0.000000 
#    z 0.000000 0.000000 1.706410 
# 
# From -- ./inp_files/2391.got.cif
#   From: 2010.05.17/outbox.cif.g08.bks.cpg/sg178_2_cif.got.tgz:2391.got - 2010.05.20 11:30:59.
