data_PCOD9582316
_publ_section_title
;
Structure prediction by ZEFSAII (Michael W. Deem and Ramdas Pophale) SiO2 
 PCOD9582316
Probable space group: P 6 2 2
;
_chemical_formula_sum "Si O2"
_cell_formula_units_Z 48
_cell_length_a 17.377821
_cell_length_b 17.377821
_cell_length_c 7.476466
_cell_angle_alpha 90.000000
_cell_angle_beta 90.000000
_cell_angle_gamma 120.000000
_cell_volume 1955.319058
_symmetry_space_group_name_H-M "P 6 2 2"
_symmetry_group_IT_number 177
_symmetry_cell_setting 'hexagonal'
loop_
_space_group_symop_operation_xyz
x,y,z
x-y,x,z
-y,x-y,z
-x,-y,z
-x+y,-x,z
y,-x+y,z
x-y,-y,-z
-x,-x+y,-z
y,x,-z
-y,-x,-z
-x+y,y,-z
x,x-y,-z
loop_
_atom_site_type_symbol
_atom_site_label
_atom_site_fract_x
_atom_site_fract_y
_atom_site_fract_z
Si Si1 0.719345 0.514267 0.308080
Si Si2 0.857249 0.470228 0.189259
Si Si3 0.650055 0.655489 0.784890
Si Si4 0.014856 0.831145 0.782255
O O1 0.762180 0.524360 0.500000
O O2 0.787136 0.504618 0.176090
O O3 0.621042 0.429361 0.297769
O O4 0.702163 0.594385 0.266342
O O5 0.944564 0.553252 0.273578
O O6 0.878090 0.439045 0.000000
O O7 0.750372 0.721238 0.724561
O O8 0.650129 0.650129 0.000000
O O9 0.923096 0.824258 0.723912
O O10 0.000000 0.822458 0.000000
#
# Coordination Sequence:
#
# PCOD9582316 Si02
#       4
#    12  12  12  12
#     4  12  27  46  70 104 149 195 249 327 410 473
#     4  12  25  46  75 104 143 195 263 322 388 482
#     4  11  23  42  71 105 142 192 259 321 383 468
#     4   9  17  31  57  97 142 185 230 292 367 446
#
# _framework density 24.548425999999999
#
# number of rings (size 3 to 8) (size 9 to 14) (size 15 to 20)
#    0.000    1.000    2.500    4.500    0.000    4.000 
#    0.000    2.500    0.000    0.000    0.000    0.000 
#    0.000    2.000    0.000    0.000    0.000    0.000 
#
# Total GULP energy -268819.807834 kJ/mol
# GULP energy per Si atom -5600.412663 kJ/mol
# Density = 2.449255 g / cm^3
# Si number density = 24.548426 Si / 1000 Ang^3
#
#
#
# Elastic Constant Matrix: (Units=GPa)
#
#
# Indices 1 2 3 4 5 6 
#
# 1 195.9145 74.3361 19.6745 0.0000 0.0000 0.0000
# 2 74.3361 195.9145 19.6745 0.0000 0.0000 0.0000
# 3 19.6745 19.6745 72.5627 0.0000 0.0000 0.0000
# 4 0.0000 0.0000 0.0000 15.2566 0.0000 0.0000
# 5 0.0000 0.0000 0.0000 0.0000 15.2566 0.0000
# 6 0.0000 0.0000 0.0000 0.0000 0.0000 60.7892
#
#
#
# Elastic Compliance Matrix: (Units=1/GPa)
#
#
# Indices 1 2 3 4 5 6 
#
# 1 0.006039 -0.002186 -0.001045 0.000000 0.000000 0.000000
# 2 -0.002186 0.006039 -0.001045 0.000000 0.000000 0.000000
# 3 -0.001045 -0.001045 0.014348 0.000000 0.000000 0.000000
# 4 0.000000 0.000000 0.000000 0.065546 0.000000 0.000000
# 5 0.000000 0.000000 0.000000 0.000000 0.065546 0.000000
# 6 0.000000 0.000000 0.000000 0.000000 0.000000 0.016450
#
#
# Mechanical properties :
#
#
# Convention : Reuss Voigt Hill
#
# Bulk Modulus (GPa) = 55.94644 76.86243 66.40443
# Shear Modulus (GPa) = 26.52867 41.64090 34.08478
#
# Velocity S-wave (km/s) = 3.29092 4.12306 3.73026
# Velocity P-wave (km/s) = 6.10573 7.35150 6.75738
#
# Compressibility (1/GPa) = 0.01787424
#
# Stress axis : x y z
#
# Youngs Moduli (GPa) = 165.59718 165.59718 69.69803
#
# Poissons Ratio (x) = 0.36206 0.07280
# Poissons Ratio (y) = 0.36206 0.07280
# Poissons Ratio (z) = 0.17297 0.17297
#
# Static dielectric constant tensor:
#      x y z
#    x 1.921040 0.000000 0.000000 
#    y 0.000000 1.921040 0.000000 
#    z 0.000000 0.000000 2.037510 
# 
# From -- ./inp_files/1126.got.cif
#   From: 2010.05.17/outbox.cif.g08.bks.cpg/sg177_1_cif.got.tgz:1126.got - 2010.05.20 11:28:44.
