data_PCOD9582772
_publ_section_title
;
Structure prediction by ZEFSAII (Michael W. Deem and Ramdas Pophale) SiO2 
 PCOD9582772
Probable space group: P 61 2 2
;
_chemical_formula_sum "Si O2"
_cell_formula_units_Z 42
_cell_length_a 11.044445
_cell_length_b 11.044445
_cell_length_c 16.712856
_cell_angle_alpha 90.000000
_cell_angle_beta 90.000000
_cell_angle_gamma 120.000000
_cell_volume 1765.505588
_symmetry_space_group_name_H-M "P 61 2 2"
_symmetry_group_IT_number 178
_symmetry_cell_setting 'hexagonal'
loop_
_space_group_symop_operation_xyz
x,y,z
x-y,x,1/6+z
-y,x-y,1/3+z
-x,-y,1/2+z
-x+y,-x,2/3+z
y,-x+y,5/6+z
x-y,-y,-z
-x,-x+y,2/3-z
y,x,1/3-z
-y,-x,5/6-z
-x+y,y,1/2-z
x,x-y,1/6-z
loop_
_atom_site_type_symbol
_atom_site_label
_atom_site_fract_x
_atom_site_fract_y
_atom_site_fract_z
Si Si1 0.000000 0.536862 0.333334
Si Si2 0.223315 0.422482 0.111542
Si Si3 0.514493 0.485508 0.916667
Si Si4 0.113282 0.000000 0.000000
Si Si5 0.767715 0.248508 0.091296
O O1 0.888571 0.387617 0.295069
O O2 0.898425 0.570687 0.384312
O O3 0.142795 0.269207 0.148737
O O4 0.134905 0.495353 0.140383
O O5 0.221202 0.427045 0.015346
O O6 0.357684 0.437229 0.886626
O O7 0.058589 0.029295 0.083334
O O8 0.702143 0.351072 0.083334
#
# Coordination Sequence:
#
# PCOD9582772 Si02
#       5
#     6  12   6   6  12
#     4  11  24  42  77 114 148 213 267 326 402 485
#     4  11  22  44  72 103 155 209 263 321 401 509
#     4  10  22  40  68 104 158 194 248 332 404 474
#     4  11  26  48  77 106 148 215 283 334 412 505
#     4  10  23  41  68 112 157 198 259 337 405 474
#
# _framework density 23.789218000000002
#
# number of rings (size 3 to 8) (size 9 to 14) (size 15 to 20)
#    0.857    0.571    0.000    5.143    0.000    6.857 
#    0.000    5.714    0.000    0.000    0.000    0.000 
#    0.000    0.000    0.000    0.000    0.000    0.000 
#
# Total GULP energy -234296.629182 kJ/mol
# GULP energy per Si atom -5578.491171 kJ/mol
# Density = 2.373507 g / cm^3
# Si number density = 23.789218 Si / 1000 Ang^3
#
#
#
# Elastic Constant Matrix: (Units=GPa)
#
#
# Indices 1 2 3 4 5 6 
#
# 1 114.2093 61.8771 52.7903 0.0000 0.0000 0.0000
# 2 61.8771 114.2093 52.7903 0.0000 0.0000 0.0000
# 3 52.7903 52.7903 128.0128 0.0000 0.0000 0.0000
# 4 0.0000 0.0000 0.0000 40.5551 0.0000 0.0000
# 5 0.0000 0.0000 0.0000 0.0000 40.5551 0.0000
# 6 0.0000 0.0000 0.0000 0.0000 0.0000 26.1661
#
#
#
# Elastic Compliance Matrix: (Units=1/GPa)
#
#
# Indices 1 2 3 4 5 6 
#
# 1 0.013327 -0.005782 -0.003111 0.000000 0.000000 0.000000
# 2 -0.005782 0.013327 -0.003111 0.000000 0.000000 0.000000
# 3 -0.003111 -0.003111 0.010378 0.000000 0.000000 0.000000
# 4 0.000000 0.000000 0.000000 0.024658 0.000000 0.000000
# 5 0.000000 0.000000 0.000000 0.000000 0.024658 0.000000
# 6 0.000000 0.000000 0.000000 0.000000 0.000000 0.038217
#
#
# Mechanical properties :
#
#
# Convention : Reuss Voigt Hill
#
# Bulk Modulus (GPa) = 76.79397 76.81635 76.80516
# Shear Modulus (GPa) = 32.69818 34.05350 33.37584
#
# Velocity S-wave (km/s) = 3.71144 3.78758 3.74970
# Velocity P-wave (km/s) = 7.12162 7.17553 7.14862
#
# Compressibility (1/GPa) = 0.01302186
#
# Stress axis : x y z
#
# Youngs Moduli (GPa) = 75.03787 75.03787 96.35996
#
# Poissons Ratio (x) = 0.43388 0.29980
# Poissons Ratio (y) = 0.43388 0.29980
# Poissons Ratio (z) = 0.23346 0.23346
#
# Static dielectric constant tensor:
#      x y z
#    x 1.933320 0.000000 0.000000 
#    y 0.000000 1.933320 0.000000 
#    z 0.000000 0.000000 1.997110 
# 
# From -- ./inp_files/7221.got.cif
#   From: 2010.05.17/outbox.cif.g08.bks.cpg/sg178_4_cif.got.tgz:7221.got - 2010.05.20 11:30:59.
