data_PCOD9582648
_publ_section_title
;
Structure prediction by ZEFSAII (Michael W. Deem and Ramdas Pophale) SiO2 
 PCOD9582648
Probable space group: P 61 2 2
;
_chemical_formula_sum "Si O2"
_cell_formula_units_Z 30
_cell_length_a 13.692603
_cell_length_b 13.692603
_cell_length_c 8.470426
_cell_angle_alpha 90.000000
_cell_angle_beta 90.000000
_cell_angle_gamma 120.000000
_cell_volume 1375.333170
_symmetry_space_group_name_H-M "P 61 2 2"
_symmetry_group_IT_number 178
_symmetry_cell_setting 'hexagonal'
loop_
_space_group_symop_operation_xyz
x,y,z
x-y,x,1/6+z
-y,x-y,1/3+z
-x,-y,1/2+z
-x+y,-x,2/3+z
y,-x+y,5/6+z
x-y,-y,-z
-x,-x+y,2/3-z
y,x,1/3-z
-y,-x,5/6-z
-x+y,y,1/2-z
x,x-y,1/6-z
loop_
_atom_site_type_symbol
_atom_site_label
_atom_site_fract_x
_atom_site_fract_y
_atom_site_fract_z
Si Si1 0.793219 0.793219 0.166667
Si Si2 0.180042 0.442776 0.991229
Si Si3 0.872280 0.391761 0.343889
O O1 0.908486 0.816972 0.250000
O O2 0.680167 0.765082 0.266303
O O3 0.304792 0.466022 0.032978
O O4 0.141877 0.466539 0.160367
O O5 0.193177 0.540514 0.873037
O O6 0.000000 0.486990 0.333334
#
# Coordination Sequence:
#
# PCOD9582648 Si02
#       3
#     6  12  12
#     4  12  26  50  68  98 134 192 244 290 338 408
#     4  10  22  42  68 100 138 180 227 284 350 418
#     4  10  20  42  66 103 138 177 223 284 356 418
#
# _framework density 21.812895000000001
#
# number of rings (size 3 to 8) (size 9 to 14) (size 15 to 20)
#    0.000    1.600    2.000    2.400    0.000    0.000 
#   32.400    0.000    0.000    0.000    0.000    0.000 
#    0.000    0.000    0.000    0.000    0.000    0.000 
#
# Total GULP energy -167440.348138 kJ/mol
# GULP energy per Si atom -5581.344938 kJ/mol
# Density = 2.176325 g / cm^3
# Si number density = 21.812895 Si / 1000 Ang^3
#
#
#
# Elastic Constant Matrix: (Units=GPa)
#
#
# Indices 1 2 3 4 5 6 
#
# 1 139.7033 80.7868 68.3083 0.0000 0.0000 0.0000
# 2 80.7868 139.7033 68.3083 0.0000 0.0000 0.0000
# 3 68.3083 68.3083 80.6711 0.0000 0.0000 0.0000
# 4 0.0000 0.0000 0.0000 27.8250 0.0000 0.0000
# 5 0.0000 0.0000 0.0000 0.0000 27.8250 0.0000
# 6 0.0000 0.0000 0.0000 0.0000 0.0000 29.4582
#
#
#
# Elastic Compliance Matrix: (Units=1/GPa)
#
#
# Indices 1 2 3 4 5 6 
#
# 1 0.013257 -0.003716 -0.008079 0.000000 0.000000 0.000000
# 2 -0.003716 0.013257 -0.008079 0.000000 0.000000 0.000000
# 3 -0.008079 -0.008079 0.026078 0.000000 0.000000 0.000000
# 4 0.000000 0.000000 0.000000 0.035939 0.000000 0.000000
# 5 0.000000 0.000000 0.000000 0.000000 0.035939 0.000000
# 6 0.000000 0.000000 0.000000 0.000000 0.000000 0.033946
#
#
# Mechanical properties :
#
#
# Convention : Reuss Voigt Hill
#
# Bulk Modulus (GPa) = 77.85636 88.32051 83.08843
# Shear Modulus (GPa) = 24.69800 26.53323 25.61562
#
# Velocity S-wave (km/s) = 3.36857 3.49148 3.43057
# Velocity P-wave (km/s) = 7.13442 7.53869 7.33934
#
# Compressibility (1/GPa) = 0.01284417
#
# Stress axis : x y z
#
# Youngs Moduli (GPa) = 75.43100 75.43100 38.34692
#
# Poissons Ratio (x) = 0.28031 0.30980
# Poissons Ratio (y) = 0.28031 0.30980
# Poissons Ratio (z) = 0.60940 0.60940
#
# Static dielectric constant tensor:
#      x y z
#    x 1.855520 0.000000 0.000000 
#    y 0.000000 1.855520 0.000000 
#    z 0.000000 0.000000 1.905670 
# 
# From -- ./inp_files/2042.got.cif
#   From: 2010.05.17/outbox.cif.g08.bks.cpg/sg178_2_cif.got.tgz:2042.got - 2010.05.20 11:30:59.
