data_PCOD9582490
_publ_section_title
;
Structure prediction by ZEFSAII (Michael W. Deem and Ramdas Pophale) SiO2 
 PCOD9582490
Probable space group: P 61 2 2
;
_chemical_formula_sum "Si O2"
_cell_formula_units_Z 78
_cell_length_a 24.421627
_cell_length_b 24.421627
_cell_length_c 8.610492
_cell_angle_alpha 90.000000
_cell_angle_beta 90.000000
_cell_angle_gamma 120.000000
_cell_volume 4447.416336
_symmetry_space_group_name_H-M "P 61 2 2"
_symmetry_group_IT_number 178
_symmetry_cell_setting 'hexagonal'
loop_
_space_group_symop_operation_xyz
x,y,z
x-y,x,1/6+z
-y,x-y,1/3+z
-x,-y,1/2+z
-x+y,-x,2/3+z
y,-x+y,5/6+z
x-y,-y,-z
-x,-x+y,2/3-z
y,x,1/3-z
-y,-x,5/6-z
-x+y,y,1/2-z
x,x-y,1/6-z
loop_
_atom_site_type_symbol
_atom_site_label
_atom_site_fract_x
_atom_site_fract_y
_atom_site_fract_z
Si Si1 0.580977 0.000000 0.500000
Si Si2 0.117787 0.555340 0.396691
Si Si3 0.345560 0.229617 0.512433
Si Si4 0.334411 0.318473 0.920137
Si Si5 0.873967 0.552021 0.396329
Si Si6 0.240135 0.878690 0.981530
Si Si7 0.809507 0.494775 0.715470
O O1 0.570255 0.059179 0.508258
O O2 0.617058 0.990777 0.353335
O O3 0.126679 0.563340 0.583334
O O4 0.105860 0.611128 0.344238
O O5 0.173723 0.554005 0.298183
O O6 0.316923 0.158462 0.583334
O O7 0.313928 0.275232 0.507291
O O8 0.413495 0.269120 0.597966
O O9 0.351520 0.227649 0.328979
O O10 0.387317 0.319125 0.810077
O O11 0.321932 0.265036 0.050036
O O12 0.825146 0.510865 0.532815
O O13 0.174295 0.825706 0.916667
O O14 0.290396 0.854811 0.956531
O O15 0.738457 0.476913 0.750000
#
# Coordination Sequence:
#
# PCOD9582490 Si02
#       7
#     6  12  12  12  12  12  12
#     4  12  22  34  56  78 118 144 184 226 308 362
#     4  12  25  36  56  86 114 143 183 235 304 370
#     4  12  22  35  54  82 109 147 187 236 285 341
#     4  11  21  39  54  79 112 150 189 232 287 361
#     4  11  24  36  57  81 114 139 183 238 294 356
#     4  10  19  36  55  75 105 147 183 226 279 338
#     4  10  20  39  58  75 103 140 177 219 286 357
#
# _framework density 17.538271999999999
#
# number of rings (size 3 to 8) (size 9 to 14) (size 15 to 20)
#    0.000    0.923    4.615    5.538    4.308    0.000 
#    0.000    0.000    0.000    5.538    0.000    0.000 
#    0.000    0.000    0.000    0.000    0.000    0.000 
#
# Total GULP energy -434406.852492 kJ/mol
# GULP energy per Si atom -5569.318622 kJ/mol
# Density = 1.749835 g / cm^3
# Si number density = 17.538272 Si / 1000 Ang^3
#
#
#
# Elastic Constant Matrix: (Units=GPa)
#
#
# Indices 1 2 3 4 5 6 
#
# 1 93.6517 28.3250 39.3491 0.0000 0.0000 0.0000
# 2 28.3250 93.6517 39.3491 0.0000 0.0000 0.0000
# 3 39.3491 39.3491 123.8482 0.0000 0.0000 0.0000
# 4 0.0000 0.0000 0.0000 28.7943 0.0000 0.0000
# 5 0.0000 0.0000 0.0000 0.0000 28.7943 0.0000
# 6 0.0000 0.0000 0.0000 0.0000 0.0000 32.6633
#
#
#
# Elastic Compliance Matrix: (Units=1/GPa)
#
#
# Indices 1 2 3 4 5 6 
#
# 1 0.012810 -0.002498 -0.003276 0.000000 0.000000 0.000000
# 2 -0.002498 0.012810 -0.003276 0.000000 0.000000 0.000000
# 3 -0.003276 -0.003276 0.010156 0.000000 0.000000 0.000000
# 4 0.000000 0.000000 0.000000 0.034729 0.000000 0.000000
# 5 0.000000 0.000000 0.000000 0.000000 0.034729 0.000000
# 6 0.000000 0.000000 0.000000 0.000000 0.000000 0.030615
#
#
# Mechanical properties :
#
#
# Convention : Reuss Voigt Hill
#
# Bulk Modulus (GPa) = 56.57662 58.35537 57.46600
# Shear Modulus (GPa) = 31.28080 31.65896 31.46988
#
# Velocity S-wave (km/s) = 4.22782 4.25330 4.24058
# Velocity P-wave (km/s) = 7.49410 7.58064 7.53750
#
# Compressibility (1/GPa) = 0.01767514
#
# Stress axis : x y z
#
# Youngs Moduli (GPa) = 78.06442 78.06442 98.46052
#
# Poissons Ratio (x) = 0.19499 0.32260
# Poissons Ratio (y) = 0.19499 0.32260
# Poissons Ratio (z) = 0.25577 0.25577
#
# Static dielectric constant tensor:
#      x y z
#    x 1.592470 0.000000 0.000000 
#    y 0.000000 1.592470 0.000000 
#    z 0.000000 0.000000 1.678570 
# 
# From -- ./inp_files/3559.got.cif
#   From: 2010.05.17/outbox.cif.g08.bks.cpg/sg178_2_cif.got.tgz:3559.got - 2010.05.20 11:30:59.
