data_PCOD9582238
_publ_section_title
;
Structure prediction by ZEFSAII (Michael W. Deem and Ramdas Pophale) SiO2 
 PCOD9582238
Probable space group: P 6 2 2
;
_chemical_formula_sum "Si O2"
_cell_formula_units_Z 60
_cell_length_a 17.125709
_cell_length_b 17.125709
_cell_length_c 12.812511
_cell_angle_alpha 90.000000
_cell_angle_beta 90.000000
_cell_angle_gamma 120.000000
_cell_volume 3254.333100
_symmetry_space_group_name_H-M "P 6 2 2"
_symmetry_group_IT_number 177
_symmetry_cell_setting 'hexagonal'
loop_
_space_group_symop_operation_xyz
x,y,z
x-y,x,z
-y,x-y,z
-x,-y,z
-x+y,-x,z
y,-x+y,z
x-y,-y,-z
-x,-x+y,-z
y,x,-z
-y,-x,-z
-x+y,y,-z
x,x-y,-z
loop_
_atom_site_type_symbol
_atom_site_label
_atom_site_fract_x
_atom_site_fract_y
_atom_site_fract_z
Si Si1 0.903474 0.521583 0.060213
Si Si2 0.500000 0.000000 0.249663
Si Si3 0.866405 0.150152 0.619336
Si Si4 0.336146 0.977234 0.616708
Si Si5 0.873028 0.079442 0.842226
Si Si6 0.819765 0.639530 0.000000
O O1 0.924469 0.498623 0.173684
O O2 0.854397 0.578301 0.052958
O O3 0.854073 0.427037 0.000000
O O4 0.000000 0.580594 0.000000
O O5 0.439137 0.029450 0.314258
O O6 0.877430 0.122571 0.500000
O O7 0.759491 0.115921 0.619672
O O8 0.872217 0.094695 0.717549
O O9 0.939839 0.255628 0.639829
O O10 0.373112 0.000000 0.500000
O O11 0.976910 0.141013 0.871010
O O12 0.816978 0.114586 0.908082
#
# Coordination Sequence:
#
# PCOD9582238 Si02
#       6
#    12   6  12  12  12   6
#     4   9  21  38  58  83 115 145 193 248 304 373
#     4  10  20  38  60  88 114 158 196 262 314 370
#     4  10  21  36  59  91 124 164 209 257 305 373
#     4  10  20  36  60  90 124 160 211 257 310 372
#     4  12  24  37  58  86 126 170 218 258 305 364
#     4  12  24  40  63  86 116 166 203 254 322 380
#
# _framework density 18.436958000000001
#
# number of rings (size 3 to 8) (size 9 to 14) (size 15 to 20)
#    0.000    1.800    2.000    3.500    5.600    0.000 
#    0.600    1.000    0.000    2.000    0.000    2.800 
#    0.000    0.000    0.000    0.000    0.000    0.000 
#
# Total GULP energy -334301.249903 kJ/mol
# GULP energy per Si atom -5571.687498 kJ/mol
# Density = 1.839499 g / cm^3
# Si number density = 18.436958 Si / 1000 Ang^3
#
#
#
# Elastic Constant Matrix: (Units=GPa)
#
#
# Indices 1 2 3 4 5 6 
#
# 1 70.1309 59.3539 35.5613 0.0000 0.0000 0.0000
# 2 59.3539 70.1309 35.5613 0.0000 0.0000 0.0000
# 3 35.5613 35.5613 82.2405 0.0000 0.0000 0.0000
# 4 0.0000 0.0000 0.0000 25.2942 0.0000 0.0000
# 5 0.0000 0.0000 0.0000 0.0000 25.2942 0.0000
# 6 0.0000 0.0000 0.0000 0.0000 0.0000 5.3885
#
#
#
# Elastic Compliance Matrix: (Units=1/GPa)
#
#
# Indices 1 2 3 4 5 6 
#
# 1 0.051460 -0.041331 -0.004380 0.000000 0.000000 0.000000
# 2 -0.041331 0.051460 -0.004380 0.000000 0.000000 0.000000
# 3 -0.004380 -0.004380 0.015947 0.000000 0.000000 0.000000
# 4 0.000000 0.000000 0.000000 0.039535 0.000000 0.000000
# 5 0.000000 0.000000 0.000000 0.000000 0.039535 0.000000
# 6 0.000000 0.000000 0.000000 0.000000 0.000000 0.185582
#
#
# Mechanical properties :
#
#
# Convention : Reuss Voigt Hill
#
# Bulk Modulus (GPa) = 53.51733 53.71725 53.61729
# Shear Modulus (GPa) = 10.20561 17.33043 13.76802
#
# Velocity S-wave (km/s) = 2.35530 3.06924 2.73566
# Velocity P-wave (km/s) = 6.04043 6.46214 6.25484
#
# Compressibility (1/GPa) = 0.01868554
#
# Stress axis : x y z
#
# Youngs Moduli (GPa) = 19.43270 19.43270 62.70757
#
# Poissons Ratio (x) = 0.80318 0.27464
# Poissons Ratio (y) = 0.80318 0.27464
# Poissons Ratio (z) = 0.08511 0.08511
#
# Static dielectric constant tensor:
#      x y z
#    x 1.634790 0.000000 0.000000 
#    y 0.000000 1.634790 0.000000 
#    z 0.000000 0.000000 1.711610 
# 
# From -- ./inp_files/2018.got.cif
#   From: 2010.05.17/outbox.cif.g08.bks.cpg/sg177_2_cif.got.tgz:2018.got - 2010.05.20 11:28:44.
