data_PCOD9582186
_publ_section_title
;
Structure prediction by ZEFSAII (Michael W. Deem and Ramdas Pophale) SiO2 
 PCOD9582186
Probable space group: P 6 2 2
;
_chemical_formula_sum "Si O2"
_cell_formula_units_Z 84
_cell_length_a 18.346886
_cell_length_b 18.346886
_cell_length_c 16.537948
_cell_angle_alpha 90.000000
_cell_angle_beta 90.000000
_cell_angle_gamma 120.000000
_cell_volume 4820.998303
_symmetry_space_group_name_H-M "P 6 2 2"
_symmetry_group_IT_number 177
_symmetry_cell_setting 'hexagonal'
loop_
_space_group_symop_operation_xyz
x,y,z
x-y,x,z
-y,x-y,z
-x,-y,z
-x+y,-x,z
y,-x+y,z
x-y,-y,-z
-x,-x+y,-z
y,x,-z
-y,-x,-z
-x+y,y,-z
x,x-y,-z
loop_
_atom_site_type_symbol
_atom_site_label
_atom_site_fract_x
_atom_site_fract_y
_atom_site_fract_z
Si Si1 0.466981 0.367105 0.851144
Si Si2 0.831328 0.831329 0.598448
Si Si3 0.098925 0.739481 0.000000
Si Si4 0.466980 0.367104 0.148856
Si Si5 0.504554 0.836612 0.671662
Si Si6 0.495446 0.163388 0.328338
Si Si7 0.337729 0.337729 0.596930
O O1 0.412723 0.412723 0.831949
O O2 0.558083 0.441917 0.879502
O O3 0.479734 0.330458 0.768179
O O4 0.418165 0.301255 0.921459
O O5 0.915613 0.831226 0.624611
O O6 0.831911 0.831911 0.500000
O O7 0.747007 0.747007 0.623860
O O8 0.116911 0.698746 0.921459
O O9 0.161449 0.838552 0.000000
O O10 0.000000 0.708178 0.000000
O O11 0.479734 0.330458 0.231821
O O12 0.416659 0.833317 0.654549
O O13 0.501868 0.750934 0.647433
O O14 0.580764 0.916952 0.629089
O O15 0.419236 0.083048 0.370911
O O16 0.338891 0.338891 0.500000
#
# Coordination Sequence:
#
# PCOD9582186 Si02
#       7
#    12  12  12  12  12  12  12
#     4   9  17  32  54  80 108 140 173 210 259 317
#     4   9  17  31  53  81 108 131 159 202 260 322
#     4  10  19  31  51  80 111 143 180 220 259 305
#     4   9  17  32  54  80 108 140 173 210 259 317
#     4  11  22  37  56  79 108 141 180 224 272 323
#     4  11  22  37  56  79 108 141 180 224 272 323
#     4  11  23  39  57  76 101 139 183 227 273 328
#
# _framework density 17.423777000000001
#
# number of rings (size 3 to 8) (size 9 to 14) (size 15 to 20)
#    0.000    2.000    1.429    3.000    0.000    5.143 
#    0.000    0.000    0.000    5.857    0.000    0.000 
#    0.000    0.000    0.000    0.000    0.000    0.000 
#
# Total GULP energy -468837.760468 kJ/mol
# GULP energy per Si atom -5581.401910 kJ/mol
# Density = 1.738412 g / cm^3
# Si number density = 17.423777 Si / 1000 Ang^3
#
#
#
# Elastic Constant Matrix: (Units=GPa)
#
#
# Indices 1 2 3 4 5 6 
#
# 1 157.3195 99.3451 42.2639 0.0000 0.0000 0.0000
# 2 99.3451 157.3195 42.2639 0.0000 0.0000 0.0000
# 3 42.2639 42.2639 42.5029 0.0000 0.0000 0.0000
# 4 0.0000 0.0000 0.0000 14.8407 0.0000 0.0000
# 5 0.0000 0.0000 0.0000 0.0000 14.8407 0.0000
# 6 0.0000 0.0000 0.0000 0.0000 0.0000 28.9872
#
#
#
# Elastic Compliance Matrix: (Units=1/GPa)
#
#
# Indices 1 2 3 4 5 6 
#
# 1 0.011521 -0.005728 -0.005761 0.000000 0.000000 0.000000
# 2 -0.005728 0.011521 -0.005761 0.000000 0.000000 0.000000
# 3 -0.005761 -0.005761 0.034985 0.000000 0.000000 0.000000
# 4 0.000000 0.000000 0.000000 0.067382 0.000000 0.000000
# 5 0.000000 0.000000 0.000000 0.000000 0.067382 0.000000
# 6 0.000000 0.000000 0.000000 0.000000 0.000000 0.034498
#
#
# Mechanical properties :
#
#
# Convention : Reuss Voigt Hill
#
# Bulk Modulus (GPa) = 42.50226 80.54309 61.52267
# Shear Modulus (GPa) = 18.54387 23.28498 20.91442
#
# Velocity S-wave (km/s) = 3.26588 3.65963 3.46835
# Velocity P-wave (km/s) = 6.21832 8.01146 7.17116
#
# Compressibility (1/GPa) = 0.02352816
#
# Stress axis : x y z
#
# Youngs Moduli (GPa) = 86.79675 86.79675 28.58405
#
# Poissons Ratio (x) = 0.49716 0.16467
# Poissons Ratio (y) = 0.49716 0.16467
# Poissons Ratio (z) = 0.50002 0.50002
#
# Static dielectric constant tensor:
#      x y z
#    x 1.577510 0.000000 0.000000 
#    y 0.000000 1.577510 0.000000 
#    z 0.000000 0.000000 1.583830 
# 
# From -- ./inp_files/2641.got.cif
#   From: 2010.05.17/outbox.cif.g08.bks.cpg/sg177_2_cif.got.tgz:2641.got - 2010.05.20 11:28:44.
