data_PCOD9582583
_publ_section_title
;
Structure prediction by ZEFSAII (Michael W. Deem and Ramdas Pophale) SiO2 
 PCOD9582583
Probable space group: P 61 2 2
;
_chemical_formula_sum "Si O2"
_cell_formula_units_Z 54
_cell_length_a 11.563208
_cell_length_b 11.563208
_cell_length_c 21.960093
_cell_angle_alpha 90.000000
_cell_angle_beta 90.000000
_cell_angle_gamma 120.000000
_cell_volume 2542.854333
_symmetry_space_group_name_H-M "P 61 2 2"
_symmetry_group_IT_number 178
_symmetry_cell_setting 'hexagonal'
loop_
_space_group_symop_operation_xyz
x,y,z
x-y,x,1/6+z
-y,x-y,1/3+z
-x,-y,1/2+z
-x+y,-x,2/3+z
y,-x+y,5/6+z
x-y,-y,-z
-x,-x+y,2/3-z
y,x,1/3-z
-y,-x,5/6-z
-x+y,y,1/2-z
x,x-y,1/6-z
loop_
_atom_site_type_symbol
_atom_site_label
_atom_site_fract_x
_atom_site_fract_y
_atom_site_fract_z
Si Si1 0.844779 0.189419 0.593205
Si Si2 0.564676 0.129352 0.750000
Si Si3 0.065341 0.186040 0.896504
Si Si4 0.541228 0.849419 0.884412
Si Si5 0.641733 0.591346 0.813146
O O1 0.823552 0.277814 0.644982
O O2 0.847236 0.241814 0.524984
O O3 0.991529 0.204533 0.600929
O O4 0.727295 0.041018 0.609678
O O5 0.721153 0.224068 0.760413
O O6 0.564713 0.042106 0.693892
O O7 0.061287 0.301505 0.935506
O O8 0.000000 0.189254 0.833334
O O9 0.964854 0.035147 0.916667
O O10 0.432910 0.893887 0.894747
#
# Coordination Sequence:
#
# PCOD9582583 Si02
#       5
#    12   6  12  12  12
#     4  11  20  40  65  89 123 164 216 258 322 383
#     4  10  20  36  64  84 122 160 208 242 318 374
#     4  12  22  38  64  92 121 162 214 268 317 375
#     4  11  21  39  62  87 127 159 205 266 308 387
#     4  11  21  40  66  95 120 171 211 265 318 386
#
# _framework density 21.235979
#
# number of rings (size 3 to 8) (size 9 to 14) (size 15 to 20)
#    0.000    0.889    8.889    0.000    0.000    0.000 
#    6.000    0.000    0.000    0.000    0.000    0.000 
#    0.000    0.000    0.000    0.000    0.000    0.000 
#
# Total GULP energy -300802.140162 kJ/mol
# GULP energy per Si atom -5570.410003 kJ/mol
# Density = 2.118765 g / cm^3
# Si number density = 21.235979 Si / 1000 Ang^3
#
#
#
# Elastic Constant Matrix: (Units=GPa)
#
#
# Indices 1 2 3 4 5 6 
#
# 1 57.5196 -1.4101 16.6104 0.0000 0.0000 0.0000
# 2 -1.4101 57.5196 16.6104 0.0000 0.0000 0.0000
# 3 16.6104 16.6104 31.5317 0.0000 0.0000 0.0000
# 4 0.0000 0.0000 0.0000 6.0413 0.0000 0.0000
# 5 0.0000 0.0000 0.0000 0.0000 6.0413 0.0000
# 6 0.0000 0.0000 0.0000 0.0000 0.0000 29.4649
#
#
#
# Elastic Compliance Matrix: (Units=1/GPa)
#
#
# Indices 1 2 3 4 5 6 
#
# 1 0.021435 0.004466 -0.013644 0.000000 0.000000 0.000000
# 2 0.004466 0.021435 -0.013644 0.000000 0.000000 0.000000
# 3 -0.013644 -0.013644 0.046089 0.000000 0.000000 0.000000
# 4 0.000000 0.000000 0.000000 0.165527 0.000000 0.000000
# 5 0.000000 0.000000 0.000000 0.000000 0.165527 0.000000
# 6 0.000000 0.000000 0.000000 0.000000 0.000000 0.033939
#
#
# Mechanical properties :
#
#
# Convention : Reuss Voigt Hill
#
# Bulk Modulus (GPa) = 23.08718 23.35470 23.22094
# Shear Modulus (GPa) = 9.72699 15.96019 12.84359
#
# Velocity S-wave (km/s) = 2.14252 2.74444 2.46194
# Velocity P-wave (km/s) = 4.12502 4.58957 4.36349
#
# Compressibility (1/GPa) = 0.04331408
#
# Stress axis : x y z
#
# Youngs Moduli (GPa) = 46.65280 46.65280 21.69711
#
# Poissons Ratio (x) = -0.20833 0.29604
# Poissons Ratio (y) = -0.20833 0.29604
# Poissons Ratio (z) = 0.63653 0.63653
#
# Static dielectric constant tensor:
#      x y z
#    x 1.839090 0.000000 0.000000 
#    y 0.000000 1.839090 0.000000 
#    z 0.000000 0.000000 1.852020 
# 
# From -- ./inp_files/7410.got.cif
#   From: 2010.05.17/outbox.cif.g08.bks.cpg/sg178_4_cif.got.tgz:7410.got - 2010.05.20 11:30:59.
