data_PCOD9582152
_publ_section_title
;
Structure prediction by ZEFSAII (Michael W. Deem and Ramdas Pophale) SiO2 
 PCOD9582152
Probable space group: P 63/M
;
_chemical_formula_sum "Si O2"
_cell_formula_units_Z 72
_cell_length_a 24.000000
_cell_length_b 24.000000
_cell_length_c 9.000000
_cell_angle_alpha 90.000000
_cell_angle_beta 90.000000
_cell_angle_gamma 120.000000
_cell_volume 4489.475693
_symmetry_space_group_name_H-M "P 63/M"
_symmetry_group_IT_number 176
_symmetry_cell_setting 'hexagonal'
loop_
_space_group_symop_operation_xyz
x,y,z
x-y,x,1/2+z
-y,x-y,z
-x,-y,1/2+z
-x+y,-x,z
y,-x+y,1/2+z
-x,-y,-z
-x+y,-x,1/2-z
y,-x+y,-z
x,y,1/2-z
x-y,x,-z
-y,x-y,1/2-z
loop_
_atom_site_type_symbol
_atom_site_label
_atom_site_fract_x
_atom_site_fract_y
_atom_site_fract_z
Si Si1 0.850715 0.705026 0.431409
Si Si2 0.222908 0.781214 0.430737
Si Si3 0.003359 0.751891 0.069332
Si Si4 0.000346 0.618684 0.429453
Si Si5 0.134417 0.627125 0.070151
Si Si6 0.862055 0.495437 0.431109
O O1 0.845130 0.701823 0.250000
O O2 0.815568 0.631394 0.499066
O O3 0.810742 0.740025 0.496113
O O4 0.929748 0.739856 0.463910
O O5 0.225281 0.789181 0.250000
O O6 0.184625 0.703465 0.460719
O O7 0.295484 0.814302 0.499057
O O8 0.010586 0.759239 0.250000
O O9 0.001289 0.684715 0.025671
O O10 0.002047 0.620809 0.250000
O O11 0.064231 0.616717 0.476498
O O12 0.934184 0.554056 0.470348
O O13 0.134392 0.619023 0.250000
O O14 0.146627 0.572426 0.994146
O O15 0.855903 0.491944 0.250000
#
# Coordination Sequence:
#
# PCOD9582152 Si02
#       6
#    12  12  12  12  12  12
#     4  11  22  37  61  92 123 154 195 242 286 344
#     4  11  22  38  60  82 112 155 196 240 293 350
#     4  10  20  38  60  86 124 158 187 236 294 347
#     4   9  17  34  57  82 114 148 178 225 289 340
#     4  10  21  38  57  78 108 149 192 230 283 349
#     4  11  22  37  57  82 114 146 186 242 291 337
#
# _framework density 16.037507000000002
#
# number of rings (size 3 to 8) (size 9 to 14) (size 15 to 20)
#    0.000    1.667    3.333    2.000    0.000    2.667 
#    1.000    0.833    0.000    0.333    0.000    0.000 
#    0.000    0.000    0.000    0.000    0.000    0.000 
#
# Total GULP energy -401111.685668 kJ/mol
# GULP energy per Si atom -5570.995634 kJ/mol
# Density = 1.600101 g / cm^3
# Si number density = 16.037507 Si / 1000 Ang^3
#
#
#
# Elastic Constant Matrix: (Units=GPa)
#
#
# Indices 1 2 3 4 5 6 
#
# 1 161.0452 77.6177 45.9564 0.0000 0.0000 0.0000
# 2 77.6177 161.0452 45.9564 0.0000 0.0000 0.0000
# 3 45.9564 45.9564 79.0951 0.0000 0.0000 0.0000
# 4 0.0000 0.0000 0.0000 35.7058 0.0000 0.0000
# 5 0.0000 0.0000 0.0000 0.0000 35.7058 0.0000
# 6 0.0000 0.0000 0.0000 0.0000 0.0000 41.7137
#
#
#
# Elastic Compliance Matrix: (Units=1/GPa)
#
#
# Indices 1 2 3 4 5 6 
#
# 1 0.008692 -0.003294 -0.003136 0.000000 0.000000 0.000000
# 2 -0.003294 0.008692 -0.003136 0.000000 0.000000 0.000000
# 3 -0.003136 -0.003136 0.016288 0.000000 0.000000 0.000000
# 4 0.000000 0.000000 0.000000 0.028007 0.000000 0.000000
# 5 0.000000 0.000000 0.000000 0.000000 0.028007 0.000000
# 6 0.000000 0.000000 0.000000 0.000000 0.000000 0.023973
#
#
# Mechanical properties :
#
#
# Convention : Reuss Voigt Hill
#
# Bulk Modulus (GPa) = 68.78494 82.24960 75.51727
# Shear Modulus (GPa) = 36.32721 38.06874 37.19797
#
# Velocity S-wave (km/s) = 4.76451 4.87738 4.82128
# Velocity P-wave (km/s) = 8.55866 9.11677 8.84212
#
# Compressibility (1/GPa) = 0.01453807
#
# Stress axis : x y z
#
# Youngs Moduli (GPa) = 115.04631 115.04631 61.39662
#
# Poissons Ratio (x) = 0.37900 0.19256
# Poissons Ratio (y) = 0.37900 0.19256
# Poissons Ratio (z) = 0.36082 0.36082
#
# Static dielectric constant tensor:
#      x y z
#    x 1.551180 0.000000 0.000000 
#    y 0.000000 1.551180 0.000000 
#    z 0.000000 0.000000 1.549450 
# 
# From -- ./inp_files/1220.got.cif
#   From: 2010.05.17/outbox.ucp.g08.bks.cvg/sg176_1_cif.got.tgz:1220.got - 2010.06.11 15:18:56.
