data_PCOD9582970
_publ_section_title
;
Structure prediction by ZEFSAII (Michael W. Deem and Ramdas Pophale) SiO2 
 PCOD9582970
Probable space group: P 61 2 2
;
_chemical_formula_sum "Si O2"
_cell_formula_units_Z 48
_cell_length_a 17.002520
_cell_length_b 17.002520
_cell_length_c 9.780142
_cell_angle_alpha 90.000000
_cell_angle_beta 90.000000
_cell_angle_gamma 120.000000
_cell_volume 2448.512812
_symmetry_space_group_name_H-M "P 61 2 2"
_symmetry_group_IT_number 178
_symmetry_cell_setting 'hexagonal'
loop_
_space_group_symop_operation_xyz
x,y,z
x-y,x,1/6+z
-y,x-y,1/3+z
-x,-y,1/2+z
-x+y,-x,2/3+z
y,-x+y,5/6+z
x-y,-y,-z
-x,-x+y,2/3-z
y,x,1/3-z
-y,-x,5/6-z
-x+y,y,1/2-z
x,x-y,1/6-z
loop_
_atom_site_type_symbol
_atom_site_label
_atom_site_fract_x
_atom_site_fract_y
_atom_site_fract_z
Si Si1 0.250956 0.932007 0.375315
Si Si2 0.755196 0.065918 0.372602
Si Si3 0.642034 0.176321 0.883934
Si Si4 0.918486 0.504224 0.723699
O O1 0.152097 0.847904 0.416667
O O2 0.317239 0.890339 0.353101
O O3 0.291710 0.000000 0.500000
O O4 0.256775 0.997463 0.251614
O O5 0.853841 0.146160 0.416667
O O6 0.687713 0.106556 0.350728
O O7 0.717034 0.000000 0.500000
O O8 0.727386 0.272615 0.916667
O O9 0.588210 0.176420 0.750000
O O10 0.580675 0.151992 0.019965
O O11 0.941242 0.470621 0.583334
O O12 0.000000 0.548511 0.833334
#
# Coordination Sequence:
#
# PCOD9582970 Si02
#       4
#    12  12  12  12
#     4  11  23  41  65  91 122 162 206 254 312 378
#     4  11  23  39  62  90 119 154 203 257 308 369
#     4  11  24  40  59  89 130 174 217 262 313 369
#     4  11  22  38  62  90 124 166 213 263 316 376
#
# _framework density 19.603736999999999
#
# number of rings (size 3 to 8) (size 9 to 14) (size 15 to 20)
#    0.000    1.000    0.000    9.000    0.000    8.000 
#    0.000    0.000    0.000    7.500    0.000    0.000 
#    0.000    0.000    0.000    0.000    0.000    0.000 
#
# Total GULP energy -267995.604974 kJ/mol
# GULP energy per Si atom -5583.241770 kJ/mol
# Density = 1.955912 g / cm^3
# Si number density = 19.603737 Si / 1000 Ang^3
#
#
#
# Elastic Constant Matrix: (Units=GPa)
#
#
# Indices 1 2 3 4 5 6 
#
# 1 134.6660 73.8575 55.9125 0.0000 0.0000 0.0000
# 2 73.8575 134.6660 55.9125 0.0000 0.0000 0.0000
# 3 55.9125 55.9125 159.0895 0.0000 0.0000 0.0000
# 4 0.0000 0.0000 0.0000 35.9513 0.0000 0.0000
# 5 0.0000 0.0000 0.0000 0.0000 35.9513 0.0000
# 6 0.0000 0.0000 0.0000 0.0000 0.0000 30.4042
#
#
#
# Elastic Compliance Matrix: (Units=1/GPa)
#
#
# Indices 1 2 3 4 5 6 
#
# 1 0.011177 -0.005268 -0.002077 0.000000 0.000000 0.000000
# 2 -0.005268 0.011177 -0.002077 0.000000 0.000000 0.000000
# 3 -0.002077 -0.002077 0.007746 0.000000 0.000000 0.000000
# 4 0.000000 0.000000 0.000000 0.027815 0.000000 0.000000
# 5 0.000000 0.000000 0.000000 0.000000 0.027815 0.000000
# 6 0.000000 0.000000 0.000000 0.000000 0.000000 0.032890
#
#
# Mechanical properties :
#
#
# Convention : Reuss Voigt Hill
#
# Bulk Modulus (GPa) = 88.83439 88.86517 88.84978
# Shear Modulus (GPa) = 35.40662 36.64397 36.02530
#
# Velocity S-wave (km/s) = 4.25445 4.32815 4.29146
# Velocity P-wave (km/s) = 8.33950 8.39085 8.36521
#
# Compressibility (1/GPa) = 0.01125690
#
# Stress axis : x y z
#
# Youngs Moduli (GPa) = 89.46758 89.46758 129.10536
#
# Poissons Ratio (x) = 0.47130 0.26814
# Poissons Ratio (y) = 0.47130 0.26814
# Poissons Ratio (z) = 0.18581 0.18581
#
# Static dielectric constant tensor:
#      x y z
#    x 1.693410 0.000000 0.000000 
#    y 0.000000 1.693410 0.000000 
#    z 0.000000 0.000000 1.625170 
# 
# From -- ./inp_files/2607.got.cif
#   From: 2010.05.17/outbox.cif.g08.bks.cpg/sg178_2_cif.got.tgz:2607.got - 2010.05.20 11:30:59.
