data_PCOD9582306
_publ_section_title
;
Structure prediction by ZEFSAII (Michael W. Deem and Ramdas Pophale) SiO2 
 PCOD9582306
Probable space group: P 6 2 2
;
_chemical_formula_sum "Si O2"
_cell_formula_units_Z 72
_cell_length_a 14.817304
_cell_length_b 14.817304
_cell_length_c 18.280690
_cell_angle_alpha 90.000000
_cell_angle_beta 90.000000
_cell_angle_gamma 120.000000
_cell_volume 3475.854577
_symmetry_space_group_name_H-M "P 6 2 2"
_symmetry_group_IT_number 177
_symmetry_cell_setting 'hexagonal'
loop_
_space_group_symop_operation_xyz
x,y,z
x-y,x,z
-y,x-y,z
-x,-y,z
-x+y,-x,z
y,-x+y,z
x-y,-y,-z
-x,-x+y,-z
y,x,-z
-y,-x,-z
-x+y,y,-z
x,x-y,-z
loop_
_atom_site_type_symbol
_atom_site_label
_atom_site_fract_x
_atom_site_fract_y
_atom_site_fract_z
Si Si1 0.368746 0.890926 0.778203
Si Si2 0.381842 0.973109 0.616418
Si Si3 0.151371 0.823526 0.579782
Si Si4 0.140636 0.904816 0.264969
Si Si5 0.599023 0.615974 0.080337
Si Si6 0.541158 0.706485 0.195662
O O1 0.361215 0.940971 0.702369
O O2 0.345536 0.941650 0.849641
O O3 0.286077 0.768664 0.786173
O O4 0.478009 0.891733 0.779529
O O5 0.277775 0.873068 0.583156
O O6 0.500000 0.000000 0.599140
O O7 0.376134 0.075577 0.592676
O O8 0.139300 0.860701 0.500000
O O9 0.116854 0.867426 0.647787
O O10 0.219887 0.869777 0.235387
O O11 0.022575 0.835997 0.240416
O O12 0.500000 0.500000 0.073094
O O13 0.563151 0.694829 0.110975
O O14 0.647627 0.647627 0.000000
#
# Coordination Sequence:
#
# PCOD9582306 Si02
#       6
#    12  12  12  12  12  12
#     4  11  22  36  65  94 129 172 224 270 332 393
#     4  12  26  46  70  98 136 181 231 285 340 421
#     4  12  25  43  68  94 128 173 218 277 346 405
#     4  12  24  42  65  93 122 163 213 276 335 402
#     4   9  19  35  56  86 130 176 217 267 324 381
#     4  11  21  39  62  95 131 171 224 273 326 395
#
# _framework density 20.714328999999999
#
# number of rings (size 3 to 8) (size 9 to 14) (size 15 to 20)
#    0.000    0.833    3.333    5.500    0.000    2.000 
#    1.000    0.000    0.000    3.000    0.000    0.000 
#    0.000    1.333    0.000    0.000    0.000    0.000 
#
# Total GULP energy -401081.162190 kJ/mol
# GULP energy per Si atom -5570.571697 kJ/mol
# Density = 2.066718 g / cm^3
# Si number density = 20.714329 Si / 1000 Ang^3
#
#
#
# Elastic Constant Matrix: (Units=GPa)
#
#
# Indices 1 2 3 4 5 6 
#
# 1 114.0001 41.4460 21.3125 0.0000 0.0000 0.0000
# 2 41.4460 114.0001 21.3125 0.0000 0.0000 0.0000
# 3 21.3125 21.3125 125.4767 0.0000 0.0000 0.0000
# 4 0.0000 0.0000 0.0000 10.2755 0.0000 0.0000
# 5 0.0000 0.0000 0.0000 0.0000 10.2755 0.0000
# 6 0.0000 0.0000 0.0000 0.0000 0.0000 36.2770
#
#
#
# Elastic Compliance Matrix: (Units=1/GPa)
#
#
# Indices 1 2 3 4 5 6 
#
# 1 0.010265 -0.003518 -0.001146 0.000000 0.000000 0.000000
# 2 -0.003518 0.010265 -0.001146 0.000000 0.000000 0.000000
# 3 -0.001146 -0.001146 0.008359 0.000000 0.000000 0.000000
# 4 0.000000 0.000000 0.000000 0.097319 0.000000 0.000000
# 5 0.000000 0.000000 0.000000 0.000000 0.097319 0.000000
# 6 0.000000 0.000000 0.000000 0.000000 0.000000 0.027566
#
#
# Mechanical properties :
#
#
# Convention : Reuss Voigt Hill
#
# Bulk Modulus (GPa) = 57.90577 57.95762 57.93169
# Shear Modulus (GPa) = 18.62418 29.32601 23.97509
#
# Velocity S-wave (km/s) = 3.00175 3.76671 3.40577
# Velocity P-wave (km/s) = 6.32686 6.85257 6.59495
#
# Compressibility (1/GPa) = 0.01726944
#
# Stress axis : x y z
#
# Youngs Moduli (GPa) = 97.41754 97.41754 119.63258
#
# Poissons Ratio (x) = 0.34269 0.13711
# Poissons Ratio (y) = 0.34269 0.13711
# Poissons Ratio (z) = 0.11165 0.11165
#
# Static dielectric constant tensor:
#      x y z
#    x 1.802810 0.000000 0.000000 
#    y 0.000000 1.802810 0.000000 
#    z 0.000000 0.000000 1.797460 
# 
# From -- ./inp_files/2838.got.cif
#   From: 2010.05.17/outbox.cif.g08.bks.cpg/sg177_2_cif.got.tgz:2838.got - 2010.05.20 11:28:44.
