data_PCOD9582901
_publ_section_title
;
Structure prediction by ZEFSAII (Michael W. Deem and Ramdas Pophale) SiO2 
 PCOD9582901
Probable space group: P 61 2 2
;
_chemical_formula_sum "Si O2"
_cell_formula_units_Z 36
_cell_length_a 10.591906
_cell_length_b 10.591906
_cell_length_c 14.422452
_cell_angle_alpha 90.000000
_cell_angle_beta 90.000000
_cell_angle_gamma 120.000000
_cell_volume 1401.257563
_symmetry_space_group_name_H-M "P 61 2 2"
_symmetry_group_IT_number 178
_symmetry_cell_setting 'hexagonal'
loop_
_space_group_symop_operation_xyz
x,y,z
x-y,x,1/6+z
-y,x-y,1/3+z
-x,-y,1/2+z
-x+y,-x,2/3+z
y,-x+y,5/6+z
x-y,-y,-z
-x,-x+y,2/3-z
y,x,1/3-z
-y,-x,5/6-z
-x+y,y,1/2-z
x,x-y,1/6-z
loop_
_atom_site_type_symbol
_atom_site_label
_atom_site_fract_x
_atom_site_fract_y
_atom_site_fract_z
Si Si1 0.237130 0.140235 0.743577
Si Si2 0.601734 0.555163 0.496629
Si Si3 0.761553 0.523105 0.750000
Si Si4 0.610359 0.305180 0.583334
O O1 0.155722 0.156384 0.836514
O O2 0.263431 0.263431 0.666667
O O3 0.376323 0.139449 0.786304
O O4 0.483044 0.516957 0.416667
O O5 0.611749 0.678592 0.564762
O O6 0.541602 0.395197 0.538680
O O7 0.696314 0.417487 0.664006
#
# Coordination Sequence:
#
# PCOD9582901 Si02
#       4
#    12  12   6   6
#     4  10  24  47  81 122 162 220 281 351 425 514
#     4  12  27  50  82 120 173 223 290 349 448 513
#     4  12  26  51  82 120 167 232 282 356 430 534
#     4  12  26  49  76 120 165 222 278 364 424 534
#
# _framework density 25.691206000000001
#
# number of rings (size 3 to 8) (size 9 to 14) (size 15 to 20)
#    0.000    0.667    3.333    3.000    0.000    8.000 
#    0.000    0.000    0.000    0.000    0.000    0.000 
#    0.000    0.000    0.000    0.000    0.000    0.000 
#
# Total GULP energy -200650.104399 kJ/mol
# GULP energy per Si atom -5573.614011 kJ/mol
# Density = 2.563273 g / cm^3
# Si number density = 25.691206 Si / 1000 Ang^3
#
#
#
# Elastic Constant Matrix: (Units=GPa)
#
#
# Indices 1 2 3 4 5 6 
#
# 1 110.4901 49.6633 49.0530 0.0000 0.0000 0.0000
# 2 49.6633 110.4901 49.0530 0.0000 0.0000 0.0000
# 3 49.0530 49.0530 137.0907 0.0000 0.0000 0.0000
# 4 0.0000 0.0000 0.0000 41.5102 0.0000 0.0000
# 5 0.0000 0.0000 0.0000 0.0000 41.5102 0.0000
# 6 0.0000 0.0000 0.0000 0.0000 0.0000 30.4134
#
#
#
# Elastic Compliance Matrix: (Units=1/GPa)
#
#
# Indices 1 2 3 4 5 6 
#
# 1 0.012218 -0.004222 -0.002861 0.000000 0.000000 0.000000
# 2 -0.004222 0.012218 -0.002861 0.000000 0.000000 0.000000
# 3 -0.002861 -0.002861 0.009342 0.000000 0.000000 0.000000
# 4 0.000000 0.000000 0.000000 0.024090 0.000000 0.000000
# 5 0.000000 0.000000 0.000000 0.000000 0.024090 0.000000
# 6 0.000000 0.000000 0.000000 0.000000 0.000000 0.032880
#
#
# Mechanical properties :
#
#
# Convention : Reuss Voigt Hill
#
# Bulk Modulus (GPa) = 71.99288 72.62327 72.30808
# Shear Modulus (GPa) = 35.87853 36.70687 36.29270
#
# Velocity S-wave (km/s) = 3.74107 3.78401 3.76260
# Velocity P-wave (km/s) = 6.83696 6.88627 6.86166
#
# Compressibility (1/GPa) = 0.01389026
#
# Stress axis : x y z
#
# Youngs Moduli (GPa) = 81.84330 81.84330 107.04205
#
# Poissons Ratio (x) = 0.34551 0.30629
# Poissons Ratio (y) = 0.34551 0.30629
# Poissons Ratio (z) = 0.23418 0.23418
#
# Static dielectric constant tensor:
#      x y z
#    x 2.290540 0.000000 0.000000 
#    y 0.000000 2.290540 0.000000 
#    z 0.000000 0.000000 1.729740 
# 
# From -- ./inp_files/5189.got.cif
#   From: 2010.05.17/outbox.cif.g08.bks.cpg/sg178_3_cif.got.tgz:5189.got - 2010.05.20 11:30:59.
