data_PCOD9582958
_publ_section_title
;
Structure prediction by ZEFSAII (Michael W. Deem and Ramdas Pophale) SiO2 
 PCOD9582958
Probable space group: P 61 2 2
;
_chemical_formula_sum "Si O2"
_cell_formula_units_Z 60
_cell_length_a 10.906017
_cell_length_b 10.906017
_cell_length_c 28.802249
_cell_angle_alpha 90.000000
_cell_angle_beta 90.000000
_cell_angle_gamma 120.000000
_cell_volume 2966.807532
_symmetry_space_group_name_H-M "P 61 2 2"
_symmetry_group_IT_number 178
_symmetry_cell_setting 'hexagonal'
loop_
_space_group_symop_operation_xyz
x,y,z
x-y,x,1/6+z
-y,x-y,1/3+z
-x,-y,1/2+z
-x+y,-x,2/3+z
y,-x+y,5/6+z
x-y,-y,-z
-x,-x+y,2/3-z
y,x,1/3-z
-y,-x,5/6-z
-x+y,y,1/2-z
x,x-y,1/6-z
loop_
_atom_site_type_symbol
_atom_site_label
_atom_site_fract_x
_atom_site_fract_y
_atom_site_fract_z
Si Si1 0.777138 0.964284 0.898253
Si Si2 0.520427 0.201669 0.897215
Si Si3 0.973779 0.738543 0.537831
Si Si4 0.056495 0.484222 0.884063
Si Si5 0.348305 0.556162 0.866381
O O1 0.780686 0.935907 0.844302
O O2 0.820976 0.867972 0.927263
O O3 0.621200 0.930195 0.913183
O O4 0.877834 0.122167 0.916667
O O5 0.666006 0.333995 0.916667
O O6 0.393340 0.235581 0.895531
O O7 0.551754 0.188514 0.843156
O O8 0.482066 0.058640 0.926261
O O9 0.100046 0.708796 0.523408
O O10 0.221330 0.592407 0.872063
O O11 0.000000 0.415810 0.833334
O O12 0.418127 0.581874 0.916667
#
# Coordination Sequence:
#
# PCOD9582958 Si02
#       5
#    12  12  12  12  12
#     4  11  21  42  68  96 123 169 223 279 324 391
#     4  12  23  40  64  94 134 173 212 271 336 397
#     4  11  24  40  65  95 133 166 220 275 330 399
#     4  11  21  39  63  96 123 167 224 269 324 396
#     4  11  23  41  64  94 130 173 222 272 331 395
#
# _framework density 20.223756999999999
#
# number of rings (size 3 to 8) (size 9 to 14) (size 15 to 20)
#    0.000    0.800    4.000    6.600    0.000    0.000 
#    0.000    3.000    0.000    0.000    0.000    0.000 
#    0.000    0.000    0.000    0.000    0.000    0.000 
#
# Total GULP energy -334684.436367 kJ/mol
# GULP energy per Si atom -5578.073939 kJ/mol
# Density = 2.017773 g / cm^3
# Si number density = 20.223757 Si / 1000 Ang^3
#
#
#
# Elastic Constant Matrix: (Units=GPa)
#
#
# Indices 1 2 3 4 5 6 
#
# 1 36.3672 -9.1496 8.7213 0.0000 0.0000 0.0000
# 2 -9.1496 36.3672 8.7213 0.0000 0.0000 0.0000
# 3 8.7213 8.7213 134.3723 0.0000 0.0000 0.0000
# 4 0.0000 0.0000 0.0000 21.5926 0.0000 0.0000
# 5 0.0000 0.0000 0.0000 0.0000 21.5926 0.0000
# 6 0.0000 0.0000 0.0000 0.0000 0.0000 22.7584
#
#
#
# Elastic Compliance Matrix: (Units=1/GPa)
#
#
# Indices 1 2 3 4 5 6 
#
# 1 0.030153 0.008183 -0.002488 0.000000 0.000000 0.000000
# 2 0.008183 0.030153 -0.002488 0.000000 0.000000 0.000000
# 3 -0.002488 -0.002488 0.007765 0.000000 0.000000 0.000000
# 4 0.000000 0.000000 0.000000 0.046312 0.000000 0.000000
# 5 0.000000 0.000000 0.000000 0.000000 0.046312 0.000000
# 6 0.000000 0.000000 0.000000 0.000000 0.000000 0.043940
#
#
# Mechanical properties :
#
#
# Convention : Reuss Voigt Hill
#
# Bulk Modulus (GPa) = 13.42581 24.85474 19.14028
# Shear Modulus (GPa) = 22.41658 26.44297 24.42978
#
# Velocity S-wave (km/s) = 3.33292 3.61989 3.47936
# Velocity P-wave (km/s) = 4.63294 5.45784 5.06222
#
# Compressibility (1/GPa) = 0.07448341
#
# Stress axis : x y z
#
# Youngs Moduli (GPa) = 33.16453 33.16453 128.78320
#
# Poissons Ratio (x) = -0.27138 0.32043
# Poissons Ratio (y) = -0.27138 0.32043
# Poissons Ratio (z) = 0.08252 0.08252
#
# Static dielectric constant tensor:
#      x y z
#    x 1.763510 0.000000 0.000000 
#    y 0.000000 1.763510 0.000000 
#    z 0.000000 0.000000 1.815290 
# 
# From -- ./inp_files/8803.got.cif
#   From: 2010.05.17/outbox.cif.g08.bks.cpg/sg178_5_cif.got.tgz:8803.got - 2010.05.20 11:30:59.
