data_PCOD9582961
_publ_section_title
;
Structure prediction by ZEFSAII (Michael W. Deem and Ramdas Pophale) SiO2 
 PCOD9582961
Probable space group: P 61 2 2
;
_chemical_formula_sum "Si O2"
_cell_formula_units_Z 72
_cell_length_a 14.237602
_cell_length_b 14.237602
_cell_length_c 19.430984
_cell_angle_alpha 90.000000
_cell_angle_beta 90.000000
_cell_angle_gamma 120.000000
_cell_volume 3411.136691
_symmetry_space_group_name_H-M "P 61 2 2"
_symmetry_group_IT_number 178
_symmetry_cell_setting 'hexagonal'
loop_
_space_group_symop_operation_xyz
x,y,z
x-y,x,1/6+z
-y,x-y,1/3+z
-x,-y,1/2+z
-x+y,-x,2/3+z
y,-x+y,5/6+z
x-y,-y,-z
-x,-x+y,2/3-z
y,x,1/3-z
-y,-x,5/6-z
-x+y,y,1/2-z
x,x-y,1/6-z
loop_
_atom_site_type_symbol
_atom_site_label
_atom_site_fract_x
_atom_site_fract_y
_atom_site_fract_z
Si Si1 0.589099 0.401677 0.246506
Si Si2 0.648684 0.791402 0.759799
Si Si3 0.905554 0.277515 0.462252
Si Si4 0.589103 0.187418 0.420164
Si Si5 0.791392 0.648681 0.073535
Si Si6 0.277517 0.371970 0.795587
O O1 0.690359 0.380717 0.250000
O O2 0.479323 0.294186 0.264811
O O3 0.575274 0.424723 0.166668
O O4 0.618341 0.506558 0.293552
O O5 0.663159 0.879166 0.702247
O O6 0.700074 0.713190 0.755214
O O7 0.690139 0.845074 0.833334
O O8 0.806178 0.193823 0.416667
O O9 0.888225 0.381658 0.460214
O O10 0.690364 0.309637 0.416667
O O11 0.479327 0.185133 0.401857
O O12 0.879157 0.663156 0.131087
O O13 0.713179 0.700070 0.078119
O O14 0.193829 0.387658 0.750000
#
# Coordination Sequence:
#
# PCOD9582961 Si02
#       6
#    12  12  12  12  12  12
#     4  11  21  40  65  95 132 175 216 263 333 413
#     4  12  25  41  66  96 136 171 225 281 344 400
#     4  11  24  42  67  94 128 178 226 278 336 413
#     4  11  21  40  65  95 132 175 216 263 333 413
#     4  12  25  41  66  96 136 171 225 281 344 400
#     4  11  24  42  67  94 128 178 226 278 336 413
#
# _framework density 21.107333000000001
#
# number of rings (size 3 to 8) (size 9 to 14) (size 15 to 20)
#    0.000    0.667    6.667    4.000    0.000    1.333 
#    0.000    3.333    0.000   10.000    0.000    0.000 
#    0.000    0.000    0.000    0.000    0.000    0.000 
#
# Total GULP energy -401611.542708 kJ/mol
# GULP energy per Si atom -5577.938093 kJ/mol
# Density = 2.105929 g / cm^3
# Si number density = 21.107333 Si / 1000 Ang^3
#
#
#
# Elastic Constant Matrix: (Units=GPa)
#
#
# Indices 1 2 3 4 5 6 
#
# 1 74.2243 37.1121 5.6839 0.0000 0.0000 0.0000
# 2 37.1121 74.2243 5.6839 0.0000 0.0000 0.0000
# 3 5.6839 5.6839 107.1854 0.0000 0.0000 0.0000
# 4 0.0000 0.0000 0.0000 11.6836 0.0000 0.0000
# 5 0.0000 0.0000 0.0000 0.0000 11.6836 0.0000
# 6 0.0000 0.0000 0.0000 0.0000 0.0000 18.5561
#
#
#
# Elastic Compliance Matrix: (Units=1/GPa)
#
#
# Indices 1 2 3 4 5 6 
#
# 1 0.017988 -0.008957 -0.000479 0.000000 0.000000 0.000000
# 2 -0.008957 0.017988 -0.000479 0.000000 0.000000 0.000000
# 3 -0.000479 -0.000479 0.009380 0.000000 0.000000 0.000000
# 4 0.000000 0.000000 0.000000 0.085590 0.000000 0.000000
# 5 0.000000 0.000000 0.000000 0.000000 0.085590 0.000000
# 6 0.000000 0.000000 0.000000 0.000000 0.000000 0.053891
#
#
# Mechanical properties :
#
#
# Convention : Reuss Voigt Hill
#
# Bulk Modulus (GPa) = 39.17534 39.17706 39.17620
# Shear Modulus (GPa) = 16.73546 22.19491 19.46518
#
# Velocity S-wave (km/s) = 2.81886 3.24624 3.04007
# Velocity P-wave (km/s) = 5.40324 5.71419 5.56089
#
# Compressibility (1/GPa) = 0.02552626
#
# Stress axis : x y z
#
# Youngs Moduli (GPa) = 55.59256 55.59256 106.60502
#
# Poissons Ratio (x) = 0.49796 0.05105
# Poissons Ratio (y) = 0.49796 0.05105
# Poissons Ratio (z) = 0.02662 0.02662
#
# Static dielectric constant tensor:
#      x y z
#    x 1.860080 0.000000 0.000000 
#    y 0.000000 1.860080 0.000000 
#    z 0.000000 0.000000 1.830570 
# 
# From -- ./inp_files/6786.got.cif
#   From: 2010.05.17/outbox.cif.g08.bks.cpg/sg178_4_cif.got.tgz:6786.got - 2010.05.20 11:30:59.
