data_PCOD9583895
_publ_section_title
;
Structure prediction by ZEFSAII (Michael W. Deem and Ramdas Pophale) SiO2 
 PCOD9583895
Probable space group: P 62 2 2
;
_chemical_formula_sum "Si O2"
_cell_formula_units_Z 36
_cell_length_a 9.089061
_cell_length_b 9.089061
_cell_length_c 23.455593
_cell_angle_alpha 90.000000
_cell_angle_beta 90.000000
_cell_angle_gamma 120.000000
_cell_volume 1678.089365
_symmetry_space_group_name_H-M "P 62 2 2"
_symmetry_group_IT_number 180
_symmetry_cell_setting 'hexagonal'
loop_
_space_group_symop_operation_xyz
x,y,z
x-y,x,1/3+z
-y,x-y,2/3+z
-x,-y,z
-x+y,-x,1/3+z
y,-x+y,2/3+z
x-y,-y,-z
-x,-x+y,1/3-z
y,x,2/3-z
-y,-x,2/3-z
-x+y,y,-z
x,x-y,1/3-z
loop_
_atom_site_type_symbol
_atom_site_label
_atom_site_fract_x
_atom_site_fract_y
_atom_site_fract_z
Si Si1 0.163884 0.170560 0.264951
Si Si2 0.825062 0.501993 0.438085
Si Si3 0.518496 0.348421 0.898880
O O1 0.163969 0.163969 0.333334
O O2 0.326151 0.153664 0.251921
O O3 0.172932 0.342177 0.239367
O O4 0.000000 0.000000 0.242865
O O5 0.748398 0.496795 0.500000
O O6 0.674857 0.336990 0.407617
O O7 0.000000 0.500000 0.440529
O O8 0.500000 0.500000 0.926072
O O9 0.583605 0.416396 0.833334
#
# Coordination Sequence:
#
# PCOD9583895 Si02
#       3
#    12  12  12
#     4  11  25  43  63  91 129 171 214 265 328 392
#     4  11  22  39  64  94 125 161 208 260 315 380
#     4  10  21  40  64  93 125 163 213 265 318 383
#
# _framework density 21.452969
#
# number of rings (size 3 to 8) (size 9 to 14) (size 15 to 20)
#    0.000    1.333    0.000    7.000    0.000    7.333 
#    0.000    0.000    0.000    0.000    0.000    0.000 
#    0.000    0.000    0.000    0.000    0.000    0.000 
#
# Total GULP energy -200727.288038 kJ/mol
# GULP energy per Si atom -5575.758001 kJ/mol
# Density = 2.140414 g / cm^3
# Si number density = 21.452969 Si / 1000 Ang^3
#
#
#
# Elastic Constant Matrix: (Units=GPa)
#
#
# Indices 1 2 3 4 5 6 
#
# 1 251.1125 149.6110 31.1062 0.0000 0.0000 0.0000
# 2 149.6110 251.1125 31.1062 0.0000 0.0000 0.0000
# 3 31.1062 31.1062 50.8370 0.0000 0.0000 0.0000
# 4 0.0000 0.0000 0.0000 7.6808 0.0000 0.0000
# 5 0.0000 0.0000 0.0000 0.0000 7.6808 0.0000
# 6 0.0000 0.0000 0.0000 0.0000 0.0000 50.7508
#
#
#
# Elastic Compliance Matrix: (Units=1/GPa)
#
#
# Indices 1 2 3 4 5 6 
#
# 1 0.006305 -0.003547 -0.001687 0.000000 0.000000 0.000000
# 2 -0.003547 0.006305 -0.001687 0.000000 0.000000 0.000000
# 3 -0.001687 -0.001687 0.021735 0.000000 0.000000 0.000000
# 4 0.000000 0.000000 0.000000 0.130194 0.000000 0.000000
# 5 0.000000 0.000000 0.000000 0.000000 0.130194 0.000000
# 6 0.000000 0.000000 0.000000 0.000000 0.000000 0.019704
#
#
# Mechanical properties :
#
#
# Convention : Reuss Voigt Hill
#
# Bulk Modulus (GPa) = 48.77706 108.52321 78.65013
# Shear Modulus (GPa) = 14.92025 35.97173 25.44599
#
# Velocity S-wave (km/s) = 2.64007 4.09928 3.44776
# Velocity P-wave (km/s) = 5.66387 8.54996 7.25194
#
# Compressibility (1/GPa) = 0.02050144
#
# Stress axis : x y z
#
# Youngs Moduli (GPa) = 158.61063 158.61063 46.00779
#
# Poissons Ratio (x) = 0.56264 0.07763
# Poissons Ratio (y) = 0.56264 0.07763
# Poissons Ratio (z) = 0.26761 0.26761
#
# Static dielectric constant tensor:
#      x y z
#    x 1.926650 0.000000 0.000000 
#    y 0.000000 1.926650 0.000000 
#    z 0.000000 0.000000 8.984740 
# 
# From -- ./inp_files/10758.got.cif
#   From: 2010.05.17/outbox.cif.g08.bks.cpg/sg180_6_cif.got.tgz:10758.got - 2010.05.20 11:43:55.
