data_PCOD9583082
_publ_section_title
;
Structure prediction by ZEFSAII (Michael W. Deem and Ramdas Pophale) SiO2 
 PCOD9583082
Probable space group: P 61 2 2
;
_chemical_formula_sum "Si O2"
_cell_formula_units_Z 72
_cell_length_a 25.054904
_cell_length_b 25.054904
_cell_length_c 7.077539
_cell_angle_alpha 90.000000
_cell_angle_beta 90.000000
_cell_angle_gamma 120.000000
_cell_volume 3847.675066
_symmetry_space_group_name_H-M "P 61 2 2"
_symmetry_group_IT_number 178
_symmetry_cell_setting 'hexagonal'
loop_
_space_group_symop_operation_xyz
x,y,z
x-y,x,1/6+z
-y,x-y,1/3+z
-x,-y,1/2+z
-x+y,-x,2/3+z
y,-x+y,5/6+z
x-y,-y,-z
-x,-x+y,2/3-z
y,x,1/3-z
-y,-x,5/6-z
-x+y,y,1/2-z
x,x-y,1/6-z
loop_
_atom_site_type_symbol
_atom_site_label
_atom_site_fract_x
_atom_site_fract_y
_atom_site_fract_z
Si Si1 0.156304 0.639209 0.131857
Si Si2 0.378008 0.505344 0.907722
Si Si3 0.520288 0.272549 0.368750
Si Si4 0.375693 0.082166 0.291246
Si Si5 0.308242 0.942696 0.251623
Si Si6 0.629642 0.824791 0.299934
O O1 0.146361 0.640396 0.357171
O O2 0.227603 0.690266 0.089580
O O3 0.112291 0.665113 0.060319
O O4 0.141556 0.570778 0.083334
O O5 0.341150 0.534628 0.014835
O O6 0.356102 0.436267 0.967378
O O7 0.450189 0.549812 0.916667
O O8 0.541856 0.270928 0.583334
O O9 0.445270 0.235313 0.367092
O O10 0.370239 0.070608 0.520447
O O11 0.355777 0.133506 0.257126
O O12 0.334636 0.013975 0.212642
O O13 0.243400 0.895358 0.155736
O O14 0.648830 0.824415 0.083334
#
# Coordination Sequence:
#
# PCOD9583082 Si02
#       6
#    12  12  12  12  12  12
#     4   9  16  26  38  51  68  88 112 147 189 225
#     4   9  16  26  38  50  67  90 115 146 184 225
#     4   7  12  24  37  46  60  86 115 140 176 223
#     4   8  13  21  34  51  69  89 113 142 178 215
#     4   8  13  21  34  51  68  89 116 141 174 217
#     4   7  10  18  32  47  64  86 111 140 171 203
#
# _framework density 18.712599999999998
#
# number of rings (size 3 to 8) (size 9 to 14) (size 15 to 20)
#    0.000    4.000    0.000    4.000    0.000    0.667 
#    0.000    3.333    0.000    0.000    0.000    0.000 
#    0.000    0.000    0.000    0.000    0.000    0.000 
#
# Total GULP energy -400947.854069 kJ/mol
# GULP energy per Si atom -5568.720195 kJ/mol
# Density = 1.867001 g / cm^3
# Si number density = 18.712600 Si / 1000 Ang^3
#
#
#
# Elastic Constant Matrix: (Units=GPa)
#
#
# Indices 1 2 3 4 5 6 
#
# 1 117.8841 86.4669 10.8467 0.0000 0.0000 0.0000
# 2 86.4669 117.8841 10.8467 0.0000 0.0000 0.0000
# 3 10.8467 10.8467 64.4950 0.0000 0.0000 0.0000
# 4 0.0000 0.0000 0.0000 12.1958 0.0000 0.0000
# 5 0.0000 0.0000 0.0000 0.0000 12.1958 0.0000
# 6 0.0000 0.0000 0.0000 0.0000 0.0000 15.7086
#
#
#
# Elastic Compliance Matrix: (Units=1/GPa)
#
#
# Indices 1 2 3 4 5 6 
#
# 1 0.018406 -0.013424 -0.000838 0.000000 0.000000 0.000000
# 2 -0.013424 0.018406 -0.000838 0.000000 0.000000 0.000000
# 3 -0.000838 -0.000838 0.015787 0.000000 0.000000 0.000000
# 4 0.000000 0.000000 0.000000 0.081996 0.000000 0.000000
# 5 0.000000 0.000000 0.000000 0.000000 0.081996 0.000000
# 6 0.000000 0.000000 0.000000 0.000000 0.000000 0.063659
#
#
# Mechanical properties :
#
#
# Convention : Reuss Voigt Hill
#
# Bulk Modulus (GPa) = 44.64261 57.39820 51.02041
# Shear Modulus (GPa) = 15.72746 20.82690 18.27718
#
# Velocity S-wave (km/s) = 2.90224 3.33977 3.12866
# Velocity P-wave (km/s) = 5.92785 6.75368 6.35420
#
# Compressibility (1/GPa) = 0.02240012
#
# Stress axis : x y z
#
# Youngs Moduli (GPa) = 54.32986 54.32986 63.34356
#
# Poissons Ratio (x) = 0.72930 0.05308
# Poissons Ratio (y) = 0.72930 0.05308
# Poissons Ratio (z) = 0.04553 0.04553
#
# Static dielectric constant tensor:
#      x y z
#    x 1.651860 0.000000 0.000000 
#    y 0.000000 1.651860 0.000000 
#    z 0.000000 0.000000 1.970580 
# 
# From -- ./inp_files/4847.got.cif
#   From: 2010.05.17/outbox.cif.g08.bks.cpg/sg178_3_cif.got.tgz:4847.got - 2010.05.20 11:30:59.
