data_PCOD9583689
_publ_section_title
;
Structure prediction by ZEFSAII (Michael W. Deem and Ramdas Pophale) SiO2 
 PCOD9583689
Probable space group: P 62 2 2
;
_chemical_formula_sum "Si O2"
_cell_formula_units_Z 39
_cell_length_a 8.244933
_cell_length_b 8.244933
_cell_length_c 30.505825
_cell_angle_alpha 90.000000
_cell_angle_beta 90.000000
_cell_angle_gamma 120.000000
_cell_volume 1795.922816
_symmetry_space_group_name_H-M "P 62 2 2"
_symmetry_group_IT_number 180
_symmetry_cell_setting 'hexagonal'
loop_
_space_group_symop_operation_xyz
x,y,z
x-y,x,1/3+z
-y,x-y,2/3+z
-x,-y,z
-x+y,-x,1/3+z
y,-x+y,2/3+z
x-y,-y,-z
-x,-x+y,1/3-z
y,x,2/3-z
-y,-x,2/3-z
-x+y,y,-z
x,x-y,1/3-z
loop_
_atom_site_type_symbol
_atom_site_label
_atom_site_fract_x
_atom_site_fract_y
_atom_site_fract_z
Si Si1 0.044245 0.277140 0.616337
Si Si2 0.399318 0.772854 0.715495
Si Si3 0.251176 0.169865 0.754195
Si Si4 0.000000 0.000000 0.166667
O O1 0.189222 0.487007 0.601241
O O2 0.163687 0.169268 0.612943
O O3 0.000000 0.287199 0.666667
O O4 0.856171 0.139443 0.589888
O O5 0.394657 0.697329 0.666667
O O6 0.529694 0.727247 0.746080
O O7 0.500000 0.000000 0.713615
O O8 0.175178 0.065839 0.800655
#
# Coordination Sequence:
#
# PCOD9583689 Si02
#       4
#    12  12  12   3
#     4   9  16  28  49  81 119 143 185 242 301 374
#     4  10  19  31  52  87 117 155 184 245 316 367
#     4   9  16  30  51  82 112 146 216 242 290 370
#     4   8  16  28  50  80  98 152 210 256 272 356
#
# _framework density 21.715855999999999
#
# number of rings (size 3 to 8) (size 9 to 14) (size 15 to 20)
#    0.000    3.077    0.000    5.538    0.000    0.615 
#    0.000    0.000    0.000    0.000  360.000    8.615 
#    0.000    0.000    0.000    0.000    0.000    0.000 
#
# Total GULP energy -217277.025418 kJ/mol
# GULP energy per Si atom -5571.205780 kJ/mol
# Density = 2.166643 g / cm^3
# Si number density = 21.715856 Si / 1000 Ang^3
#
#
#
# Elastic Constant Matrix: (Units=GPa)
#
#
# Indices 1 2 3 4 5 6 
#
# 1 131.7759 54.5617 38.3852 0.0000 0.0000 0.0000
# 2 54.5617 131.7759 38.3852 0.0000 0.0000 0.0000
# 3 38.3852 38.3852 76.7947 0.0000 0.0000 0.0000
# 4 0.0000 0.0000 0.0000 1.6264 0.0000 0.0000
# 5 0.0000 0.0000 0.0000 0.0000 1.6264 0.0000
# 6 0.0000 0.0000 0.0000 0.0000 0.0000 38.6071
#
#
#
# Elastic Compliance Matrix: (Units=1/GPa)
#
#
# Indices 1 2 3 4 5 6 
#
# 1 0.009855 -0.003096 -0.003378 0.000000 0.000000 0.000000
# 2 -0.003096 0.009855 -0.003378 0.000000 0.000000 0.000000
# 3 -0.003378 -0.003378 0.016399 0.000000 0.000000 0.000000
# 4 0.000000 0.000000 0.000000 0.614864 0.000000 0.000000
# 5 0.000000 0.000000 0.000000 0.000000 0.614864 0.000000
# 6 0.000000 0.000000 0.000000 0.000000 0.000000 0.025902
#
#
# Mechanical properties :
#
#
# Convention : Reuss Voigt Hill
#
# Bulk Modulus (GPa) = 60.96426 67.00119 63.98273
# Shear Modulus (GPa) = 3.79677 22.30627 13.05152
#
# Velocity S-wave (km/s) = 1.32370 3.20845 2.45422
# Velocity P-wave (km/s) = 5.52004 6.68178 6.12850
#
# Compressibility (1/GPa) = 0.01640305
#
# Stress axis : x y z
#
# Youngs Moduli (GPa) = 101.47464 101.47464 60.98013
#
# Poissons Ratio (x) = 0.31420 0.20600
# Poissons Ratio (y) = 0.31420 0.20600
# Poissons Ratio (z) = 0.34279 0.34279
#
# Static dielectric constant tensor:
#      x y z
#    x 1.914060 0.000000 0.000000 
#    y 0.000000 1.914060 0.000000 
#    z 0.000000 0.000000 1.737620 
# 
# From -- ./inp_files/11854.got.cif
#   From: 2010.05.17/outbox.cif.g08.bks.cpg/sg180_6_cif.got.tgz:11854.got - 2010.05.20 11:43:55.
