data_PCOD9583496
_publ_section_title
;
Structure prediction by ZEFSAII (Michael W. Deem and Ramdas Pophale) SiO2 
 PCOD9583496
Probable space group: P 65 2 2
;
_chemical_formula_sum "Si O2"
_cell_formula_units_Z 78
_cell_length_a 18.746071
_cell_length_b 18.746071
_cell_length_c 16.247400
_cell_angle_alpha 90.000000
_cell_angle_beta 90.000000
_cell_angle_gamma 120.000000
_cell_volume 4944.643890
_symmetry_space_group_name_H-M "P 65 2 2"
_symmetry_group_IT_number 179
_symmetry_cell_setting 'hexagonal'
loop_
_space_group_symop_operation_xyz
x,y,z
x-y,x,5/6+z
-y,x-y,2/3+z
-x,-y,1/2+z
-x+y,-x,1/3+z
y,-x+y,1/6+z
x-y,-y,-z
-x,-x+y,1/3-z
y,x,2/3-z
-y,-x,1/6-z
-x+y,y,1/2-z
x,x-y,5/6-z
loop_
_atom_site_type_symbol
_atom_site_label
_atom_site_fract_x
_atom_site_fract_y
_atom_site_fract_z
Si Si1 0.410777 0.073038 0.553736
Si Si2 0.707031 0.414062 0.750000
Si Si3 0.478523 0.705256 0.245658
Si Si4 0.536290 0.794443 0.768440
Si Si5 0.428384 0.023590 0.276247
Si Si6 0.502383 0.866084 0.311192
Si Si7 0.481355 0.904193 0.493893
O O1 0.408492 0.157590 0.565931
O O2 0.494938 0.103225 0.500909
O O3 0.339088 0.000000 0.500000
O O4 0.418629 0.027414 0.636942
O O5 0.614269 0.351686 0.776467
O O6 0.712613 0.472483 0.676482
O O7 0.484861 0.719648 0.149131
O O8 0.517321 0.791999 0.289835
O O9 0.513196 0.646714 0.270617
O O10 0.577038 0.893569 0.774343
O O11 0.521924 0.043847 0.250000
O O12 0.374003 0.954126 0.209883
O O13 0.428497 0.856993 0.250000
O O14 0.479841 0.865576 0.405528
O O15 0.541740 0.000000 0.500000
#
# Coordination Sequence:
#
# PCOD9583496 Si02
#       7
#    12   6  12  12  12  12  12
#     4  11  22  37  54  72 104 141 184 232 282 328
#     4  12  24  32  50  76 108 134 186 244 270 316
#     4  12  23  34  54  77 104 140 189 239 277 322
#     4  12  24  38  53  82 104 146 191 232 284 331
#     4  11  21  37  54  74 108 145 183 227 277 332
#     4  11  20  36  53  72 102 143 179 232 286 325
#     4  11  22  36  51  74 104 142 185 232 282 328
#
# _framework density 15.774644
#
# number of rings (size 3 to 8) (size 9 to 14) (size 15 to 20)
#    0.000    0.615    6.923    3.692    4.308    1.231 
#    0.000    0.000    0.000    0.000    0.000    0.000 
#    0.000    0.000    0.000    4.154    0.308    0.000 
#
# Total GULP energy -434765.933882 kJ/mol
# GULP energy per Si atom -5573.922229 kJ/mol
# Density = 1.573874 g / cm^3
# Si number density = 15.774644 Si / 1000 Ang^3
#
#
#
# Elastic Constant Matrix: (Units=GPa)
#
#
# Indices 1 2 3 4 5 6 
#
# 1 82.9659 40.1726 5.4903 0.0000 0.0000 0.0000
# 2 40.1726 82.9659 5.4903 0.0000 0.0000 0.0000
# 3 5.4903 5.4903 51.4413 0.0000 0.0000 0.0000
# 4 0.0000 0.0000 0.0000 19.4655 0.0000 0.0000
# 5 0.0000 0.0000 0.0000 0.0000 19.4655 0.0000
# 6 0.0000 0.0000 0.0000 0.0000 0.0000 21.3966
#
#
#
# Elastic Compliance Matrix: (Units=1/GPa)
#
#
# Indices 1 2 3 4 5 6 
#
# 1 0.015784 -0.007585 -0.000875 0.000000 0.000000 0.000000
# 2 -0.007585 0.015784 -0.000875 0.000000 0.000000 0.000000
# 3 -0.000875 -0.000875 0.019626 0.000000 0.000000 0.000000
# 4 0.000000 0.000000 0.000000 0.051373 0.000000 0.000000
# 5 0.000000 0.000000 0.000000 0.000000 0.051373 0.000000
# 6 0.000000 0.000000 0.000000 0.000000 0.000000 0.046736
#
#
# Mechanical properties :
#
#
# Convention : Reuss Voigt Hill
#
# Bulk Modulus (GPa) = 30.74648 35.51998 33.13323
# Shear Modulus (GPa) = 21.72154 23.14687 22.43421
#
# Velocity S-wave (km/s) = 3.71481 3.83475 3.77526
# Velocity P-wave (km/s) = 6.15899 6.49408 6.32875
#
# Compressibility (1/GPa) = 0.03252405
#
# Stress axis : x y z
#
# Youngs Moduli (GPa) = 63.35707 63.35707 50.95173
#
# Poissons Ratio (x) = 0.48054 0.04459
# Poissons Ratio (y) = 0.48054 0.04459
# Poissons Ratio (z) = 0.05544 0.05544
#
# Static dielectric constant tensor:
#      x y z
#    x 1.590100 0.000000 0.000000 
#    y 0.000000 1.590100 0.000000 
#    z 0.000000 0.000000 1.942560 
# 
# From -- ./inp_files/6987.got.cif
#   From: 2010.05.17/outbox.cif.g08.bks.cpg/sg179_4_cif.got.tgz:6987.got - 2010.05.20 11:37:33.
