data_PCOD9583344
_publ_section_title
;
Structure prediction by ZEFSAII (Michael W. Deem and Ramdas Pophale) SiO2 
 PCOD9583344
Probable space group: P 65 2 2
;
_chemical_formula_sum "Si O2"
_cell_formula_units_Z 66
_cell_length_a 10.882526
_cell_length_b 10.882526
_cell_length_c 28.015861
_cell_angle_alpha 90.000000
_cell_angle_beta 90.000000
_cell_angle_gamma 120.000000
_cell_volume 2873.386404
_symmetry_space_group_name_H-M "P 65 2 2"
_symmetry_group_IT_number 179
_symmetry_cell_setting 'hexagonal'
loop_
_space_group_symop_operation_xyz
x,y,z
x-y,x,5/6+z
-y,x-y,2/3+z
-x,-y,1/2+z
-x+y,-x,1/3+z
y,-x+y,1/6+z
x-y,-y,-z
-x,-x+y,1/3-z
y,x,2/3-z
-y,-x,1/6-z
-x+y,y,1/2-z
x,x-y,5/6-z
loop_
_atom_site_type_symbol
_atom_site_label
_atom_site_fract_x
_atom_site_fract_y
_atom_site_fract_z
Si Si1 0.856953 0.425235 0.139716
Si Si2 0.647688 0.177154 0.198416
Si Si3 0.749942 0.773328 0.661535
Si Si4 0.078768 0.000000 0.000000
Si Si5 0.129475 0.258949 0.750000
Si Si6 0.324450 0.906313 0.877463
Si Si7 0.163248 0.836753 0.583334
O O1 0.732705 0.336963 0.177539
O O2 0.839001 0.503747 0.094184
O O3 0.871659 0.297350 0.116278
O O4 0.000000 0.532499 0.166667
O O5 0.586553 0.173106 0.250000
O O6 0.741660 0.100219 0.199887
O O7 0.528743 0.085574 0.158549
O O8 0.620807 0.798110 0.648812
O O9 0.783963 0.755520 0.716159
O O10 0.879250 0.926115 0.649802
O O11 0.165422 0.000932 0.953709
O O12 0.278046 0.338633 0.720791
#
# Coordination Sequence:
#
# PCOD9583344 Si02
#       7
#    12  12  12   6   6  12   6
#     4  11  24  47  72  98 150 194 251 298 368 457
#     4  11  26  45  72 112 140 195 249 306 376 436
#     4  10  23  41  76  96 149 180 243 314 366 432
#     4  10  22  44  68 106 128 186 248 302 366 426
#     4  10  25  44  72 104 146 189 240 298 384 435
#     4  11  24  49  67 108 152 190 243 309 375 461
#     4  10  21  44  70 110 128 195 256 306 368 429
#
# _framework density 22.969411999999998
#
# number of rings (size 3 to 8) (size 9 to 14) (size 15 to 20)
#    0.000    1.455    3.636    0.545    8.909    7.273 
#    4.909    0.000    0.000    0.000    0.000    0.000 
#    0.000    0.000    0.000    0.000    0.000    0.000 
#
# Total GULP energy -368191.988563 kJ/mol
# GULP energy per Si atom -5578.666493 kJ/mol
# Density = 2.291713 g / cm^3
# Si number density = 22.969412 Si / 1000 Ang^3
#
#
#
# Elastic Constant Matrix: (Units=GPa)
#
#
# Indices 1 2 3 4 5 6 
#
# 1 65.6343 25.9852 26.0240 0.0000 0.0000 0.0000
# 2 25.9852 65.6343 26.0240 0.0000 0.0000 0.0000
# 3 26.0240 26.0240 124.2732 0.0000 0.0000 0.0000
# 4 0.0000 0.0000 0.0000 23.9970 0.0000 0.0000
# 5 0.0000 0.0000 0.0000 0.0000 23.9970 0.0000
# 6 0.0000 0.0000 0.0000 0.0000 0.0000 19.8245
#
#
#
# Elastic Compliance Matrix: (Units=1/GPa)
#
#
# Indices 1 2 3 4 5 6 
#
# 1 0.018805 -0.006416 -0.002594 0.000000 0.000000 0.000000
# 2 -0.006416 0.018805 -0.002594 0.000000 0.000000 0.000000
# 3 -0.002594 -0.002594 0.009133 0.000000 0.000000 0.000000
# 4 0.000000 0.000000 0.000000 0.041672 0.000000 0.000000
# 5 0.000000 0.000000 0.000000 0.000000 0.041672 0.000000
# 6 0.000000 0.000000 0.000000 0.000000 0.000000 0.050443
#
#
# Mechanical properties :
#
#
# Convention : Reuss Voigt Hill
#
# Bulk Modulus (GPa) = 42.49314 45.73425 44.11369
# Shear Modulus (GPa) = 23.63131 25.39760 24.51445
#
# Velocity S-wave (km/s) = 3.21100 3.32884 3.27045
# Velocity P-wave (km/s) = 5.68220 5.89313 5.78863
#
# Compressibility (1/GPa) = 0.02353321
#
# Stress axis : x y z
#
# Youngs Moduli (GPa) = 53.17765 53.17765 109.48925
#
# Poissons Ratio (x) = 0.34121 0.28404
# Poissons Ratio (y) = 0.34121 0.28404
# Poissons Ratio (z) = 0.13796 0.13796
#
# Static dielectric constant tensor:
#      x y z
#    x 1.944190 0.000000 0.000000 
#    y 0.000000 1.944190 0.000000 
#    z 0.000000 0.000000 1.920690 
# 
# From -- ./inp_files/9556.got.cif
#   From: 2010.05.17/outbox.cif.g08.bks.cpg/sg179_5_cif.got.tgz:9556.got - 2010.05.20 11:37:33.
