data_PCOD9583817
_publ_section_title
;
Structure prediction by ZEFSAII (Michael W. Deem and Ramdas Pophale) SiO2 
 PCOD9583817
Probable space group: P 62 2 2
;
_chemical_formula_sum "Si O2"
_cell_formula_units_Z 72
_cell_length_a 15.176739
_cell_length_b 15.176739
_cell_length_c 18.547480
_cell_angle_alpha 90.000000
_cell_angle_beta 90.000000
_cell_angle_gamma 120.000000
_cell_volume 3699.750811
_symmetry_space_group_name_H-M "P 62 2 2"
_symmetry_group_IT_number 180
_symmetry_cell_setting 'hexagonal'
loop_
_space_group_symop_operation_xyz
x,y,z
x-y,x,1/3+z
-y,x-y,2/3+z
-x,-y,z
-x+y,-x,1/3+z
y,-x+y,2/3+z
x-y,-y,-z
-x,-x+y,1/3-z
y,x,2/3-z
-y,-x,2/3-z
-x+y,y,-z
x,x-y,1/3-z
loop_
_atom_site_type_symbol
_atom_site_label
_atom_site_fract_x
_atom_site_fract_y
_atom_site_fract_z
Si Si1 0.881815 0.640287 0.163740
Si Si2 0.488931 0.888464 0.607972
Si Si3 0.703432 0.083917 0.254330
Si Si4 0.851875 0.589865 0.440462
Si Si5 0.758249 0.507260 0.292100
Si Si6 0.431350 0.545238 0.200167
O O1 0.875636 0.537891 0.131348
O O2 0.817139 0.668153 0.109137
O O3 0.828091 0.605202 0.241225
O O4 0.000000 0.723270 0.166667
O O5 0.558130 0.883031 0.671473
O O6 0.372234 0.805193 0.619496
O O7 0.500000 0.000000 0.611096
O O8 0.637999 0.102147 0.193888
O O9 0.659479 0.963812 0.257810
O O10 0.824084 0.648168 0.500000
O O11 0.773766 0.544642 0.374326
O O12 0.852971 0.500548 0.488127
O O13 0.645957 0.454450 0.258569
O O14 0.500000 0.500000 0.231088
#
# Coordination Sequence:
#
# PCOD9583817 Si02
#       6
#    12  12  12  12  12  12
#     4  11  22  34  57  92 122 163 201 250 314 381
#     4  12  19  35  60  89 133 162 196 254 315 380
#     4  10  20  39  59  82 124 167 199 251 316 378
#     4  11  22  40  60  80 111 163 214 261 310 371
#     4  11  22  36  59  87 120 161 207 253 312 369
#     4   9  20  40  58  81 121 162 205 259 306 362
#
# _framework density 19.46077
#
# number of rings (size 3 to 8) (size 9 to 14) (size 15 to 20)
#    0.000    1.333    5.000    1.500    0.000    3.333 
#    3.000   10.000    0.000    0.500    0.000    0.000 
#    0.000   10.667    0.000    0.000    0.000    0.333 
#
# Total GULP energy -402403.750205 kJ/mol
# GULP energy per Si atom -5588.940975 kJ/mol
# Density = 1.941648 g / cm^3
# Si number density = 19.460770 Si / 1000 Ang^3
#
#
#
# Elastic Constant Matrix: (Units=GPa)
#
#
# Indices 1 2 3 4 5 6 
#
# 1 67.5498 14.6858 28.8649 0.0000 0.0000 0.0000
# 2 14.6858 67.5498 28.8649 0.0000 0.0000 0.0000
# 3 28.8649 28.8649 116.0128 0.0000 0.0000 0.0000
# 4 0.0000 0.0000 0.0000 25.2974 0.0000 0.0000
# 5 0.0000 0.0000 0.0000 0.0000 25.2974 0.0000
# 6 0.0000 0.0000 0.0000 0.0000 0.0000 26.4320
#
#
#
# Elastic Compliance Matrix: (Units=1/GPa)
#
#
# Indices 1 2 3 4 5 6 
#
# 1 0.016825 -0.002091 -0.003666 0.000000 0.000000 0.000000
# 2 -0.002091 0.016825 -0.003666 0.000000 0.000000 0.000000
# 3 -0.003666 -0.003666 0.010444 0.000000 0.000000 0.000000
# 4 0.000000 0.000000 0.000000 0.039530 0.000000 0.000000
# 5 0.000000 0.000000 0.000000 0.000000 0.039530 0.000000
# 6 0.000000 0.000000 0.000000 0.000000 0.000000 0.037833
#
#
# Mechanical properties :
#
#
# Convention : Reuss Voigt Hill
#
# Bulk Modulus (GPa) = 39.60745 43.99375 41.80060
# Shear Modulus (GPa) = 26.56064 27.31849 26.93957
#
# Velocity S-wave (km/s) = 3.69837 3.75076 3.72466
# Velocity P-wave (km/s) = 6.21562 6.43530 6.32641
#
# Compressibility (1/GPa) = 0.02524778
#
# Stress axis : x y z
#
# Youngs Moduli (GPa) = 59.43525 59.43525 95.74951
#
# Poissons Ratio (x) = 0.12430 0.35100
# Poissons Ratio (y) = 0.12430 0.35100
# Poissons Ratio (z) = 0.21788 0.21788
#
# Static dielectric constant tensor:
#      x y z
#    x 1.702850 0.000000 0.000000 
#    y 0.000000 1.702850 0.000000 
#    z 0.000000 0.000000 1.700170 
# 
# From -- ./inp_files/7777.got.cif
#   From: 2010.05.17/outbox.cif.g08.bks.cpg/sg180_4_cif.got.tgz:7777.got - 2010.05.20 11:43:55.
