data_PCOD9583986
_publ_section_title
;
Structure prediction by ZEFSAII (Michael W. Deem and Ramdas Pophale) SiO2 
 PCOD9583986
Probable space group: P 62 2 2
;
_chemical_formula_sum "Si O2"
_cell_formula_units_Z 21
_cell_length_a 7.795160
_cell_length_b 7.795160
_cell_length_c 14.781271
_cell_angle_alpha 90.000000
_cell_angle_beta 90.000000
_cell_angle_gamma 120.000000
_cell_volume 777.843951
_symmetry_space_group_name_H-M "P 62 2 2"
_symmetry_group_IT_number 180
_symmetry_cell_setting 'hexagonal'
loop_
_space_group_symop_operation_xyz
x,y,z
x-y,x,1/3+z
-y,x-y,2/3+z
-x,-y,z
-x+y,-x,1/3+z
y,-x+y,2/3+z
x-y,-y,-z
-x,-x+y,1/3-z
y,x,2/3-z
-y,-x,2/3-z
-x+y,y,-z
x,x-y,1/3-z
loop_
_atom_site_type_symbol
_atom_site_label
_atom_site_fract_x
_atom_site_fract_y
_atom_site_fract_z
Si Si1 0.000000 0.500000 0.666667
Si Si2 0.370364 0.109747 0.580013
Si Si3 0.738047 0.476093 0.500000
O O1 0.128593 0.680090 0.739388
O O2 0.272370 0.136185 0.666667
O O3 0.525391 0.326296 0.544465
O O4 0.500000 0.000000 0.595052
O O5 0.223184 0.000000 0.500000
#
# Coordination Sequence:
#
# PCOD9583986 Si02
#       3
#     3  12   6
#     4  12  24  40  68 110 162 182 260 292 394 418
#     4   9  19  36  61  98 144 178 229 294 360 410
#     4  10  23  38  66 104 151 190 232 318 347 454
#
# _framework density 26.997699999999998
#
# number of rings (size 3 to 8) (size 9 to 14) (size 15 to 20)
#    0.000    2.857    2.857    0.000    4.000    0.000 
#    0.000    0.000    0.000    0.000    0.000  320.000 
#    0.000    0.000    0.000    0.000    0.000    0.000 
#
# Total GULP energy -116939.030846 kJ/mol
# GULP energy per Si atom -5568.525278 kJ/mol
# Density = 2.693625 g / cm^3
# Si number density = 26.997700 Si / 1000 Ang^3
#
#
#
# Elastic Constant Matrix: (Units=GPa)
#
#
# Indices 1 2 3 4 5 6 
#
# 1 79.8879 37.4544 85.9899 0.0000 0.0000 0.0000
# 2 37.4544 79.8879 85.9899 0.0000 0.0000 0.0000
# 3 85.9899 85.9899 330.2485 0.0000 0.0000 0.0000
# 4 0.0000 0.0000 0.0000 59.8755 0.0000 0.0000
# 5 0.0000 0.0000 0.0000 0.0000 59.8755 0.0000
# 6 0.0000 0.0000 0.0000 0.0000 0.0000 21.2167
#
#
#
# Elastic Compliance Matrix: (Units=1/GPa)
#
#
# Indices 1 2 3 4 5 6 
#
# 1 0.018674 -0.004893 -0.003588 0.000000 0.000000 0.000000
# 2 -0.004893 0.018674 -0.003588 0.000000 0.000000 0.000000
# 3 -0.003588 -0.003588 0.004897 0.000000 0.000000 0.000000
# 4 0.000000 0.000000 0.000000 0.016701 0.000000 0.000000
# 5 0.000000 0.000000 0.000000 0.000000 0.016701 0.000000
# 6 0.000000 0.000000 0.000000 0.000000 0.000000 0.047133
#
#
# Mechanical properties :
#
#
# Convention : Reuss Voigt Hill
#
# Bulk Modulus (GPa) = 55.23096 100.98807 78.10952
# Shear Modulus (GPa) = 32.68971 46.89955 39.79463
#
# Velocity S-wave (km/s) = 3.48348 4.17246 3.84344
# Velocity P-wave (km/s) = 6.05653 7.79101 6.97787
#
# Compressibility (1/GPa) = 0.01810579
#
# Stress axis : x y z
#
# Youngs Moduli (GPa) = 53.55097 53.55097 204.21955
#
# Poissons Ratio (x) = 0.26200 0.73281
# Poissons Ratio (y) = 0.26200 0.73281
# Poissons Ratio (z) = 0.19216 0.19216
#
# Static dielectric constant tensor:
#      x y z
#    x 2.272620 0.000000 0.000000 
#    y 0.000000 2.272620 0.000000 
#    z 0.000000 0.000000 2.247620 
# 
# From -- ./inp_files/6790.got.cif
#   From: 2010.05.17/outbox.cif.g08.bks.cpg/sg180_4_cif.got.tgz:6790.got - 2010.05.20 11:43:55.
