data_PCOD9583541
_publ_section_title
;
Structure prediction by ZEFSAII (Michael W. Deem and Ramdas Pophale) SiO2 
 PCOD9583541
Probable space group: P 65 2 2
;
_chemical_formula_sum "Si O2"
_cell_formula_units_Z 42
_cell_length_a 15.310273
_cell_length_b 15.310273
_cell_length_c 8.747753
_cell_angle_alpha 90.000000
_cell_angle_beta 90.000000
_cell_angle_gamma 120.000000
_cell_volume 1775.795753
_symmetry_space_group_name_H-M "P 65 2 2"
_symmetry_group_IT_number 179
_symmetry_cell_setting 'hexagonal'
loop_
_space_group_symop_operation_xyz
x,y,z
x-y,x,5/6+z
-y,x-y,2/3+z
-x,-y,1/2+z
-x+y,-x,1/3+z
y,-x+y,1/6+z
x-y,-y,-z
-x,-x+y,1/3-z
y,x,2/3-z
-y,-x,1/6-z
-x+y,y,1/2-z
x,x-y,5/6-z
loop_
_atom_site_type_symbol
_atom_site_label
_atom_site_fract_x
_atom_site_fract_y
_atom_site_fract_z
Si Si1 0.936094 0.468047 0.916667
Si Si2 0.600379 0.682125 0.692717
Si Si3 0.864595 0.055270 0.832539
Si Si4 0.748674 0.294064 0.752062
O O1 0.854477 0.392983 0.791640
O O2 0.015869 0.587361 0.914228
O O3 0.641296 0.641296 0.833334
O O4 0.692475 0.789202 0.645022
O O5 0.511008 0.709026 0.701464
O O6 0.844367 0.979370 0.695884
O O7 0.834933 0.000000 0.000000
O O8 0.748301 0.251700 0.583334
O O9 0.661086 0.322172 0.750000
#
# Coordination Sequence:
#
# PCOD9583541 Si02
#       4
#     6  12  12  12
#     4  12  26  40  70 100 140 192 234 298 370 432
#     4  11  24  42  68 100 142 188 242 293 364 443
#     4   9  18  36  65  93 126 176 230 283 343 418
#     4  12  25  44  68 101 143 185 244 304 365 445
#
# _framework density 23.65137
#
# number of rings (size 3 to 8) (size 9 to 14) (size 15 to 20)
#    0.000    1.143    2.857    3.429    0.000    2.286 
#    0.000    0.000   25.143    0.000    0.000    0.000 
#    0.000    0.000    0.000    0.000    0.000    0.000 
#
# Total GULP energy -234000.764584 kJ/mol
# GULP energy per Si atom -5571.446776 kJ/mol
# Density = 2.359754 g / cm^3
# Si number density = 23.651370 Si / 1000 Ang^3
#
#
#
# Elastic Constant Matrix: (Units=GPa)
#
#
# Indices 1 2 3 4 5 6 
#
# 1 111.4278 62.6328 22.9551 0.0000 0.0000 0.0000
# 2 62.6328 111.4278 22.9551 0.0000 0.0000 0.0000
# 3 22.9551 22.9551 55.4303 0.0000 0.0000 0.0000
# 4 0.0000 0.0000 0.0000 35.2437 0.0000 0.0000
# 5 0.0000 0.0000 0.0000 0.0000 35.2437 0.0000
# 6 0.0000 0.0000 0.0000 0.0000 0.0000 24.3975
#
#
#
# Elastic Compliance Matrix: (Units=1/GPa)
#
#
# Indices 1 2 3 4 5 6 
#
# 1 0.013472 -0.007022 -0.002671 0.000000 0.000000 0.000000
# 2 -0.007022 0.013472 -0.002671 0.000000 0.000000 0.000000
# 3 -0.002671 -0.002671 0.020253 0.000000 0.000000 0.000000
# 4 0.000000 0.000000 0.000000 0.028374 0.000000 0.000000
# 5 0.000000 0.000000 0.000000 0.000000 0.028374 0.000000
# 6 0.000000 0.000000 0.000000 0.000000 0.000000 0.040988
#
#
# Mechanical properties :
#
#
# Convention : Reuss Voigt Hill
#
# Bulk Modulus (GPa) = 44.50711 55.04131 49.77421
# Shear Modulus (GPa) = 28.22475 30.29317 29.25896
#
# Velocity S-wave (km/s) = 3.45826 3.58274 3.52105
# Velocity P-wave (km/s) = 5.89957 6.35902 6.13360
#
# Compressibility (1/GPa) = 0.02246832
#
# Stress axis : x y z
#
# Youngs Moduli (GPa) = 74.22936 74.22936 49.37570
#
# Poissons Ratio (x) = 0.52125 0.13188
# Poissons Ratio (y) = 0.52125 0.13188
# Poissons Ratio (z) = 0.19826 0.19826
#
# Static dielectric constant tensor:
#      x y z
#    x 1.859170 0.000000 0.000000 
#    y 0.000000 1.859170 0.000000 
#    z 0.000000 0.000000 2.088520 
# 
# From -- ./inp_files/4119.got.cif
#   From: 2010.05.17/outbox.cif.g08.bks.cpg/sg179_3_cif.got.tgz:4119.got - 2010.05.20 11:37:33.
