data_PCOD9583443
_publ_section_title
;
Structure prediction by ZEFSAII (Michael W. Deem and Ramdas Pophale) SiO2 
 PCOD9583443
Probable space group: P 65 2 2
;
_chemical_formula_sum "Si O2"
_cell_formula_units_Z 84
_cell_length_a 14.664410
_cell_length_b 14.664410
_cell_length_c 23.555257
_cell_angle_alpha 90.000000
_cell_angle_beta 90.000000
_cell_angle_gamma 120.000000
_cell_volume 4386.798312
_symmetry_space_group_name_H-M "P 65 2 2"
_symmetry_group_IT_number 179
_symmetry_cell_setting 'hexagonal'
loop_
_space_group_symop_operation_xyz
x,y,z
x-y,x,5/6+z
-y,x-y,2/3+z
-x,-y,1/2+z
-x+y,-x,1/3+z
y,-x+y,1/6+z
x-y,-y,-z
-x,-x+y,1/3-z
y,x,2/3-z
-y,-x,1/6-z
-x+y,y,1/2-z
x,x-y,5/6-z
loop_
_atom_site_type_symbol
_atom_site_label
_atom_site_fract_x
_atom_site_fract_y
_atom_site_fract_z
Si Si1 0.941425 0.519812 0.503599
Si Si2 0.726245 0.260463 0.757545
Si Si3 0.148589 0.470395 0.395864
Si Si4 0.802133 0.496480 0.196365
Si Si5 0.893999 0.545495 0.632811
Si Si6 0.400221 0.064518 0.151642
Si Si7 0.772428 0.037954 0.562217
O O1 0.842761 0.495145 0.462544
O O2 0.920474 0.546845 0.566134
O O3 0.047202 0.613150 0.476668
O O4 0.970619 0.426824 0.509271
O O5 0.659011 0.318022 0.750000
O O6 0.749825 0.239639 0.693690
O O7 0.836143 0.332624 0.787623
O O8 0.181954 0.590977 0.416667
O O9 0.237389 0.452862 0.366737
O O10 0.106018 0.399277 0.452494
O O11 0.723128 0.446255 0.250000
O O12 0.859058 0.431603 0.180048
O O13 0.889365 0.609813 0.217616
O O14 0.000000 0.627486 0.666667
O O15 0.301189 0.038138 0.111762
O O16 0.889309 0.110692 0.583334
O O17 0.777658 0.000000 0.500000
#
# Coordination Sequence:
#
# PCOD9583443 Si02
#       7
#    12  12  12  12  12  12  12
#     4  11  24  41  60  90 129 174 219 269 317 403
#     4  12  24  37  63  91 130 177 216 255 327 388
#     4  10  24  40  60  88 128 172 223 264 317 396
#     4  11  23  35  59  90 131 168 215 261 318 386
#     4  12  23  41  61  88 131 173 221 273 317 380
#     4  11  22  41  58  89 130 167 218 259 319 393
#     4  11  23  38  61  91 125 161 208 270 334 388
#
# _framework density 19.148361999999999
#
# number of rings (size 3 to 8) (size 9 to 14) (size 15 to 20)
#    0.000    0.857    4.286    3.857   10.000    0.571 
#    0.000    0.000    0.000    0.000    0.000    4.000 
#    0.000    0.000    0.000    0.000    0.000    0.000 
#
# Total GULP energy -468810.457320 kJ/mol
# GULP energy per Si atom -5581.076873 kJ/mol
# Density = 1.910478 g / cm^3
# Si number density = 19.148362 Si / 1000 Ang^3
#
#
#
# Elastic Constant Matrix: (Units=GPa)
#
#
# Indices 1 2 3 4 5 6 
#
# 1 66.2802 26.5679 43.1299 0.0000 0.0000 0.0000
# 2 26.5679 66.2802 43.1299 0.0000 0.0000 0.0000
# 3 43.1299 43.1299 125.7109 0.0000 0.0000 0.0000
# 4 0.0000 0.0000 0.0000 27.9912 0.0000 0.0000
# 5 0.0000 0.0000 0.0000 0.0000 27.9912 0.0000
# 6 0.0000 0.0000 0.0000 0.0000 0.0000 19.8561
#
#
#
# Elastic Compliance Matrix: (Units=1/GPa)
#
#
# Indices 1 2 3 4 5 6 
#
# 1 0.020495 -0.004686 -0.005424 0.000000 0.000000 0.000000
# 2 -0.004686 0.020495 -0.005424 0.000000 0.000000 0.000000
# 3 -0.005424 -0.005424 0.011677 0.000000 0.000000 0.000000
# 4 0.000000 0.000000 0.000000 0.035726 0.000000 0.000000
# 5 0.000000 0.000000 0.000000 0.000000 0.035726 0.000000
# 6 0.000000 0.000000 0.000000 0.000000 0.000000 0.050362
#
#
# Mechanical properties :
#
#
# Convention : Reuss Voigt Hill
#
# Bulk Modulus (GPa) = 46.29766 53.76962 50.03364
# Shear Modulus (GPa) = 23.50197 24.86393 24.18295
#
# Velocity S-wave (km/s) = 3.50717 3.60736 3.55762
# Velocity P-wave (km/s) = 6.37426 6.74480 6.56215
#
# Compressibility (1/GPa) = 0.02159936
#
# Stress axis : x y z
#
# Youngs Moduli (GPa) = 48.79173 48.79173 85.64138
#
# Poissons Ratio (x) = 0.22863 0.46452
# Poissons Ratio (y) = 0.22863 0.46452
# Poissons Ratio (z) = 0.26465 0.26465
#
# Static dielectric constant tensor:
#      x y z
#    x 1.704050 0.000000 0.000000 
#    y 0.000000 1.704050 0.000000 
#    z 0.000000 0.000000 1.954590 
# 
# From -- ./inp_files/8369.got.cif
#   From: 2010.05.17/outbox.cif.g08.bks.cpg/sg179_5_cif.got.tgz:8369.got - 2010.05.20 11:37:33.
