data_PCOD9583891
_publ_section_title
;
Structure prediction by ZEFSAII (Michael W. Deem and Ramdas Pophale) SiO2 
 PCOD9583891
Probable space group: P 62 2 2
;
_chemical_formula_sum "Si O2"
_cell_formula_units_Z 60
_cell_length_a 19.579200
_cell_length_b 19.579200
_cell_length_c 9.726075
_cell_angle_alpha 90.000000
_cell_angle_beta 90.000000
_cell_angle_gamma 120.000000
_cell_volume 3228.926292
_symmetry_space_group_name_H-M "P 62 2 2"
_symmetry_group_IT_number 180
_symmetry_cell_setting 'hexagonal'
loop_
_space_group_symop_operation_xyz
x,y,z
x-y,x,1/3+z
-y,x-y,2/3+z
-x,-y,z
-x+y,-x,1/3+z
y,-x+y,2/3+z
x-y,-y,-z
-x,-x+y,1/3-z
y,x,2/3-z
-y,-x,2/3-z
-x+y,y,-z
x,x-y,1/3-z
loop_
_atom_site_type_symbol
_atom_site_label
_atom_site_fract_x
_atom_site_fract_y
_atom_site_fract_z
Si Si1 0.170443 0.723886 0.954669
Si Si2 0.089959 0.273884 0.861867
Si Si3 0.456049 0.548634 0.167019
Si Si4 0.055723 0.269724 0.300541
Si Si5 0.815759 0.272466 0.470714
O O1 0.214163 0.785838 0.833334
O O2 0.134006 0.636160 0.896065
O O3 0.101616 0.738163 0.011884
O O4 0.236312 0.751530 0.073925
O O5 0.124908 0.245683 0.739554
O O6 0.118528 0.365413 0.833343
O O7 0.136470 0.272940 0.000000
O O8 0.998990 0.225637 0.902567
O O9 0.500000 0.500000 0.128350
O O10 0.451821 0.548180 0.333334
O O11 0.365586 0.505849 0.120547
O O12 0.000000 0.249078 0.166667
O O13 0.771175 0.228825 0.333334
#
# Coordination Sequence:
#
# PCOD9583891 Si02
#       5
#    12  12  12  12  12
#     4  11  22  39  59  86 120 154 203 253 301 364
#     4   8  15  29  53  79 113 146 184 235 289 345
#     4  11  23  40  61  86 119 164 210 256 313 368
#     4   9  17  32  55  84 116 154 188 244 300 353
#     4  10  21  40  58  83 115 156 205 252 308 360
#
# _framework density 18.582028999999999
#
# number of rings (size 3 to 8) (size 9 to 14) (size 15 to 20)
#    0.000    2.200    2.000    2.400    0.000    0.800 
#    3.600    1.000    0.000    0.000    0.000    0.000 
#    0.000   68.000    0.000    0.000    0.000    0.000 
#
# Total GULP energy -334637.552581 kJ/mol
# GULP energy per Si atom -5577.292543 kJ/mol
# Density = 1.853974 g / cm^3
# Si number density = 18.582029 Si / 1000 Ang^3
#
#
#
# Elastic Constant Matrix: (Units=GPa)
#
#
# Indices 1 2 3 4 5 6 
#
# 1 114.8557 75.8862 34.2472 0.0000 0.0000 0.0000
# 2 75.8862 114.8557 34.2472 0.0000 0.0000 0.0000
# 3 34.2472 34.2472 63.7577 0.0000 0.0000 0.0000
# 4 0.0000 0.0000 0.0000 27.8930 0.0000 0.0000
# 5 0.0000 0.0000 0.0000 0.0000 27.8930 0.0000
# 6 0.0000 0.0000 0.0000 0.0000 0.0000 19.4848
#
#
#
# Elastic Compliance Matrix: (Units=1/GPa)
#
#
# Indices 1 2 3 4 5 6 
#
# 1 0.016078 -0.009583 -0.003489 0.000000 0.000000 0.000000
# 2 -0.009583 0.016078 -0.003489 0.000000 0.000000 0.000000
# 3 -0.003489 -0.003489 0.019433 0.000000 0.000000 0.000000
# 4 0.000000 0.000000 0.000000 0.035851 0.000000 0.000000
# 5 0.000000 0.000000 0.000000 0.000000 0.035851 0.000000
# 6 0.000000 0.000000 0.000000 0.000000 0.000000 0.051322
#
#
# Mechanical properties :
#
#
# Convention : Reuss Voigt Hill
#
# Bulk Modulus (GPa) = 54.14907 64.69227 59.42067
# Shear Modulus (GPa) = 23.37630 24.99338 24.18484
#
# Velocity S-wave (km/s) = 3.55069 3.67144 3.61157
# Velocity P-wave (km/s) = 6.78334 7.27067 7.03123
#
# Compressibility (1/GPa) = 0.01846754
#
# Stress axis : x y z
#
# Youngs Moduli (GPa) = 62.19546 62.19546 51.45967
#
# Poissons Ratio (x) = 0.59600 0.17955
# Poissons Ratio (y) = 0.59600 0.17955
# Poissons Ratio (z) = 0.21701 0.21701
#
# Static dielectric constant tensor:
#      x y z
#    x 1.637300 0.000000 0.000000 
#    y 0.000000 1.637300 0.000000 
#    z 0.000000 0.000000 1.681300 
# 
# From -- ./inp_files/4809.got.cif
#   From: 2010.05.17/outbox.cif.g08.bks.cpg/sg180_3_cif.got.tgz:4809.got - 2010.05.20 11:43:55.
