data_PCOD9583595
_publ_section_title
;
Structure prediction by ZEFSAII (Michael W. Deem and Ramdas Pophale) SiO2 
 PCOD9583595
Probable space group: P 65 2 2
;
_chemical_formula_sum "Si O2"
_cell_formula_units_Z 78
_cell_length_a 18.000000
_cell_length_b 18.000000
_cell_length_c 15.000000
_cell_angle_alpha 90.000000
_cell_angle_beta 90.000000
_cell_angle_gamma 120.000000
_cell_volume 4208.883462
_symmetry_space_group_name_H-M "P 65 2 2"
_symmetry_group_IT_number 179
_symmetry_cell_setting 'hexagonal'
loop_
_space_group_symop_operation_xyz
x,y,z
x-y,x,5/6+z
-y,x-y,2/3+z
-x,-y,1/2+z
-x+y,-x,1/3+z
y,-x+y,1/6+z
x-y,-y,-z
-x,-x+y,1/3-z
y,x,2/3-z
-y,-x,1/6-z
-x+y,y,1/2-z
x,x-y,5/6-z
loop_
_atom_site_type_symbol
_atom_site_label
_atom_site_fract_x
_atom_site_fract_y
_atom_site_fract_z
Si Si1 0.802879 0.714639 0.863191
Si Si2 0.170930 0.475926 0.810614
Si Si3 0.374543 0.270020 0.483749
Si Si4 0.317855 0.921515 0.323521
Si Si5 0.442629 0.630251 0.995278
Si Si6 0.351804 0.648197 0.583334
Si Si7 0.528278 0.430765 0.302845
O O1 0.798675 0.798675 0.833334
O O2 0.885322 0.703685 0.854153
O O3 0.739512 0.646244 0.788249
O O4 0.763271 0.679354 0.958837
O O5 0.221359 0.442718 0.750000
O O6 0.118872 0.417293 0.893455
O O7 0.239828 0.563257 0.860035
O O8 0.115358 0.500144 0.745702
O O9 0.379572 0.356035 0.517495
O O10 0.466818 0.282196 0.506606
O O11 0.361050 0.884379 0.391456
O O12 0.358916 0.638056 0.984882
O O13 0.450810 0.598580 0.896578
O O14 0.426939 0.573062 0.083334
O O15 0.470705 0.470705 0.333334
#
# Coordination Sequence:
#
# PCOD9583595 Si02
#       7
#    12  12  12  12  12   6  12
#     4   9  18  34  58  85 111 146 182 237 299 364
#     4  12  26  41  59  78 113 162 204 255 308 356
#     4  10  20  35  56  87 117 148 195 243 298 362
#     4  11  21  38  59  79 113 160 188 241 311 356
#     4  12  26  34  56  83 109 147 210 250 304 350
#     4  12  24  42  56  78 112 154 206 262 300 336
#     4  12  23  40  56  79 111 146 204 249 301 358
#
# _framework density 18.532230999999999
#
# number of rings (size 3 to 8) (size 9 to 14) (size 15 to 20)
#    0.000    0.923    6.154    1.846    4.308    0.000 
#    0.000    0.000    0.000    0.000    0.000    0.000 
#    0.000    0.000  146.462    0.000    0.000    0.000 
#
# Total GULP energy -434623.770779 kJ/mol
# GULP energy per Si atom -5572.099625 kJ/mol
# Density = 1.849005 g / cm^3
# Si number density = 18.532231 Si / 1000 Ang^3
#
#
#
# Elastic Constant Matrix: (Units=GPa)
#
#
# Indices 1 2 3 4 5 6 
#
# 1 47.5850 15.6347 32.0953 0.0000 0.0000 0.0000
# 2 15.6347 47.5850 32.0953 0.0000 0.0000 0.0000
# 3 32.0953 32.0953 128.7366 0.0000 0.0000 0.0000
# 4 0.0000 0.0000 0.0000 21.2652 0.0000 0.0000
# 5 0.0000 0.0000 0.0000 0.0000 21.2652 0.0000
# 6 0.0000 0.0000 0.0000 0.0000 0.0000 15.9751
#
#
#
# Elastic Compliance Matrix: (Units=1/GPa)
#
#
# Indices 1 2 3 4 5 6 
#
# 1 0.026239 -0.005060 -0.005280 0.000000 0.000000 0.000000
# 2 -0.005060 0.026239 -0.005280 0.000000 0.000000 0.000000
# 3 -0.005280 -0.005280 0.010401 0.000000 0.000000 0.000000
# 4 0.000000 0.000000 0.000000 0.047025 0.000000 0.000000
# 5 0.000000 0.000000 0.000000 0.000000 0.047025 0.000000
# 6 0.000000 0.000000 0.000000 0.000000 0.000000 0.062597
#
#
# Mechanical properties :
#
#
# Convention : Reuss Voigt Hill
#
# Bulk Modulus (GPa) = 31.60741 42.61749 37.11245
# Shear Modulus (GPa) = 19.13418 21.30650 20.22034
#
# Velocity S-wave (km/s) = 3.21671 3.39440 3.30675
# Velocity P-wave (km/s) = 5.55776 6.19750 5.88633
#
# Compressibility (1/GPa) = 0.03163815
#
# Stress axis : x y z
#
# Youngs Moduli (GPa) = 38.11139 38.11139 96.14829
#
# Poissons Ratio (x) = 0.19283 0.50768
# Poissons Ratio (y) = 0.19283 0.50768
# Poissons Ratio (z) = 0.20123 0.20123
#
# Static dielectric constant tensor:
#      x y z
#    x 1.725350 0.000000 0.000000 
#    y 0.000000 1.725350 0.000000 
#    z 0.000000 0.000000 1.671070 
# 
# From -- ./inp_files/6073.got.cif
#   From: 2010.05.17/outbox.ucp.g08.bks.cvg/sg179_4_cif.got.tgz:6073.got - 2010.06.11 15:19:48.
