data_PCOD9583702
_publ_section_title
;
Structure prediction by ZEFSAII (Michael W. Deem and Ramdas Pophale) SiO2 
 PCOD9583702
Probable space group: P 62 2 2
;
_chemical_formula_sum "Si O2"
_cell_formula_units_Z 72
_cell_length_a 14.978207
_cell_length_b 14.978207
_cell_length_c 21.311139
_cell_angle_alpha 90.000000
_cell_angle_beta 90.000000
_cell_angle_gamma 120.000000
_cell_volume 4140.539671
_symmetry_space_group_name_H-M "P 62 2 2"
_symmetry_group_IT_number 180
_symmetry_cell_setting 'hexagonal'
loop_
_space_group_symop_operation_xyz
x,y,z
x-y,x,1/3+z
-y,x-y,2/3+z
-x,-y,z
-x+y,-x,1/3+z
y,-x+y,2/3+z
x-y,-y,-z
-x,-x+y,1/3-z
y,x,2/3-z
-y,-x,2/3-z
-x+y,y,-z
x,x-y,1/3-z
loop_
_atom_site_type_symbol
_atom_site_label
_atom_site_fract_x
_atom_site_fract_y
_atom_site_fract_z
Si Si1 0.500000 0.000000 0.394567
Si Si2 0.161036 0.405706 0.570486
Si Si3 0.366794 0.598247 0.904772
Si Si4 0.138355 0.647102 0.443389
Si Si5 0.548231 0.176374 0.919294
Si Si6 0.364021 0.000000 0.000000
Si Si7 0.937662 0.580064 0.386126
O O1 0.571137 0.108297 0.427616
O O2 0.430178 0.024899 0.348676
O O3 0.193940 0.387879 0.500000
O O4 0.175744 0.520902 0.573227
O O5 0.052870 0.339552 0.607485
O O6 0.242753 0.395138 0.613278
O O7 0.366849 0.633152 0.833334
O O8 0.247668 0.524581 0.921592
O O9 0.421284 0.707773 0.940392
O O10 0.149947 0.655455 0.517883
O O11 0.108618 0.532121 0.420142
O O12 0.040917 0.657082 0.423341
O O13 0.467151 0.090526 0.966443
#
# Coordination Sequence:
#
# PCOD9583702 Si02
#       7
#     6  12  12  12  12   6  12
#     4  10  21  30  46  70 100 129 174 226 262 324
#     4  12  20  35  50  71 107 147 184 232 284 333
#     4  10  19  34  52  69  98 139 182 221 270 314
#     4   9  18  33  51  69  96 142 185 217 267 333
#     4  11  19  34  48  74 105 143 185 229 266 327
#     4  12  27  30  50  82 110 147 202 237 272 356
#     4  10  20  31  49  70  99 139 178 218 272 321
#
# _framework density 17.389036999999998
#
# number of rings (size 3 to 8) (size 9 to 14) (size 15 to 20)
#    0.000    1.667    3.333    4.250    2.333    2.667 
#    0.000    0.000    0.000    0.000    0.000    0.000 
#    0.000   10.667    0.000   30.333    0.000    0.333 
#
# Total GULP energy -401017.014702 kJ/mol
# GULP energy per Si atom -5569.680760 kJ/mol
# Density = 1.734946 g / cm^3
# Si number density = 17.389037 Si / 1000 Ang^3
#
#
#
# Elastic Constant Matrix: (Units=GPa)
#
#
# Indices 1 2 3 4 5 6 
#
# 1 86.3214 38.5045 22.2811 0.0000 0.0000 0.0000
# 2 38.5045 86.3214 22.2811 0.0000 0.0000 0.0000
# 3 22.2811 22.2811 78.8327 0.0000 0.0000 0.0000
# 4 0.0000 0.0000 0.0000 21.0566 0.0000 0.0000
# 5 0.0000 0.0000 0.0000 0.0000 21.0566 0.0000
# 6 0.0000 0.0000 0.0000 0.0000 0.0000 23.9084
#
#
#
# Elastic Compliance Matrix: (Units=1/GPa)
#
#
# Indices 1 2 3 4 5 6 
#
# 1 0.014912 -0.006001 -0.002518 0.000000 0.000000 0.000000
# 2 -0.006001 0.014912 -0.002518 0.000000 0.000000 0.000000
# 3 -0.002518 -0.002518 0.014109 0.000000 0.000000 0.000000
# 4 0.000000 0.000000 0.000000 0.047491 0.000000 0.000000
# 5 0.000000 0.000000 0.000000 0.000000 0.047491 0.000000
# 6 0.000000 0.000000 0.000000 0.000000 0.000000 0.041826
#
#
# Mechanical properties :
#
#
# Convention : Reuss Voigt Hill
#
# Bulk Modulus (GPa) = 45.75480 46.40097 46.07788
# Shear Modulus (GPa) = 23.79796 24.43157 24.11477
#
# Velocity S-wave (km/s) = 3.70342 3.75240 3.72799
# Velocity P-wave (km/s) = 6.68256 6.74655 6.71463
#
# Compressibility (1/GPa) = 0.02185563
#
# Stress axis : x y z
#
# Youngs Moduli (GPa) = 67.06163 67.06163 70.87849
#
# Poissons Ratio (x) = 0.40247 0.17850
# Poissons Ratio (y) = 0.40247 0.17850
# Poissons Ratio (z) = 0.16888 0.16888
#
# Static dielectric constant tensor:
#      x y z
#    x 1.615100 0.000000 0.000000 
#    y 0.000000 1.615100 0.000000 
#    z 0.000000 0.000000 1.681620 
# 
# From -- ./inp_files/9162.got.cif
#   From: 2010.05.17/outbox.cif.g08.bks.cpg/sg180_5_cif.got.tgz:9162.got - 2010.05.20 11:43:55.
