data_PCOD9583430
_publ_section_title
;
Structure prediction by ZEFSAII (Michael W. Deem and Ramdas Pophale) SiO2 
 PCOD9583430
Probable space group: P 65 2 2
;
_chemical_formula_sum "Si O2"
_cell_formula_units_Z 84
_cell_length_a 17.589995
_cell_length_b 17.589995
_cell_length_c 14.985171
_cell_angle_alpha 90.000000
_cell_angle_beta 90.000000
_cell_angle_gamma 120.000000
_cell_volume 4015.353330
_symmetry_space_group_name_H-M "P 65 2 2"
_symmetry_group_IT_number 179
_symmetry_cell_setting 'hexagonal'
loop_
_space_group_symop_operation_xyz
x,y,z
x-y,x,5/6+z
-y,x-y,2/3+z
-x,-y,1/2+z
-x+y,-x,1/3+z
y,-x+y,1/6+z
x-y,-y,-z
-x,-x+y,1/3-z
y,x,2/3-z
-y,-x,1/6-z
-x+y,y,1/2-z
x,x-y,5/6-z
loop_
_atom_site_type_symbol
_atom_site_label
_atom_site_fract_x
_atom_site_fract_y
_atom_site_fract_z
Si Si1 0.092196 0.847042 0.385027
Si Si2 0.208530 0.791471 0.083334
Si Si3 0.693602 0.775537 0.563813
Si Si4 0.593656 0.802579 0.015401
Si Si5 0.942621 0.576532 0.536643
Si Si6 0.477256 0.611430 0.989865
Si Si7 0.000000 0.096879 0.166667
Si Si8 0.102295 0.591510 0.142051
O O1 0.158084 0.905459 0.309354
O O2 0.129660 0.786730 0.422299
O O3 0.999473 0.773267 0.347265
O O4 0.099805 0.915136 0.461952
O O5 0.191802 0.835899 0.167978
O O6 0.160012 0.688675 0.104998
O O7 0.616487 0.688048 0.612150
O O8 0.598814 0.889789 0.055341
O O9 0.630771 0.815386 0.916667
O O10 0.501135 0.711726 0.008886
O O11 0.904777 0.474727 0.562643
O O12 0.046863 0.615208 0.537945
O O13 0.419879 0.564775 0.901335
O O14 0.440421 0.559580 0.083334
O O15 0.032143 0.064285 0.250000
O O16 0.000000 0.559819 0.166667
#
# Coordination Sequence:
#
# PCOD9583430 Si02
#       8
#    12   6  12  12  12  12   6  12
#     4  11  24  42  70 102 142 185 242 302 361 420
#     4  12  30  46  74 106 142 190 242 294 360 448
#     4  11  26  44  71 104 141 190 237 300 359 429
#     4  11  22  39  67 102 134 173 232 297 351 417
#     4  10  23  43  68  97 136 182 236 284 354 416
#     4  11  24  42  68 101 140 187 226 292 361 436
#     4  12  24  46  66 104 148 202 248 304 376 432
#     4  10  25  47  71  99 140 188 237 289 353 434
#
# _framework density 20.919703999999999
#
# number of rings (size 3 to 8) (size 9 to 14) (size 15 to 20)
#    0.000    1.143    4.286    0.429   10.000    0.000 
#    3.857    1.429    0.000    0.000    0.000    0.000 
#    0.000    0.000    0.000    0.000    0.000    0.000 
#
# Total GULP energy -467833.051460 kJ/mol
# GULP energy per Si atom -5569.441089 kJ/mol
# Density = 2.087209 g / cm^3
# Si number density = 20.919704 Si / 1000 Ang^3
#
#
#
# Elastic Constant Matrix: (Units=GPa)
#
#
# Indices 1 2 3 4 5 6 
#
# 1 67.9567 26.9554 18.1327 0.0000 0.0000 0.0000
# 2 26.9554 67.9567 18.1327 0.0000 0.0000 0.0000
# 3 18.1327 18.1327 57.2646 0.0000 0.0000 0.0000
# 4 0.0000 0.0000 0.0000 17.2831 0.0000 0.0000
# 5 0.0000 0.0000 0.0000 0.0000 17.2831 0.0000
# 6 0.0000 0.0000 0.0000 0.0000 0.0000 20.5007
#
#
#
# Elastic Compliance Matrix: (Units=1/GPa)
#
#
# Indices 1 2 3 4 5 6 
#
# 1 0.018188 -0.006202 -0.003795 0.000000 0.000000 0.000000
# 2 -0.006202 0.018188 -0.003795 0.000000 0.000000 0.000000
# 3 -0.003795 -0.003795 0.019866 0.000000 0.000000 0.000000
# 4 0.000000 0.000000 0.000000 0.057860 0.000000 0.000000
# 5 0.000000 0.000000 0.000000 0.000000 0.057860 0.000000
# 6 0.000000 0.000000 0.000000 0.000000 0.000000 0.048779
#
#
# Mechanical properties :
#
#
# Convention : Reuss Voigt Hill
#
# Bulk Modulus (GPa) = 34.89514 35.51328 35.20421
# Shear Modulus (GPa) = 19.38900 19.67721 19.53311
#
# Velocity S-wave (km/s) = 3.04769 3.07026 3.05900
# Velocity P-wave (km/s) = 5.39456 5.43889 5.41677
#
# Compressibility (1/GPa) = 0.02865728
#
# Stress axis : x y z
#
# Youngs Moduli (GPa) = 54.98174 54.98174 50.33622
#
# Poissons Ratio (x) = 0.34097 0.19105
# Poissons Ratio (y) = 0.34097 0.19105
# Poissons Ratio (z) = 0.20868 0.20868
#
# Static dielectric constant tensor:
#      x y z
#    x 1.787360 0.000000 0.000000 
#    y 0.000000 1.787360 0.000000 
#    z 0.000000 0.000000 1.810380 
# 
# From -- ./inp_files/6152.got.cif
#   From: 2010.05.17/outbox.cif.g08.bks.cpg/sg179_4_cif.got.tgz:6152.got - 2010.05.20 11:37:33.
