data_PCOD9583802
_publ_section_title
;
Structure prediction by ZEFSAII (Michael W. Deem and Ramdas Pophale) SiO2 
 PCOD9583802
Probable space group: P 62 2 2
;
_chemical_formula_sum "Si O2"
_cell_formula_units_Z 84
_cell_length_a 20.543420
_cell_length_b 20.543420
_cell_length_c 11.712642
_cell_angle_alpha 90.000000
_cell_angle_beta 90.000000
_cell_angle_gamma 120.000000
_cell_volume 4280.859667
_symmetry_space_group_name_H-M "P 62 2 2"
_symmetry_group_IT_number 180
_symmetry_cell_setting 'hexagonal'
loop_
_space_group_symop_operation_xyz
x,y,z
x-y,x,1/3+z
-y,x-y,2/3+z
-x,-y,z
-x+y,-x,1/3+z
y,-x+y,2/3+z
x-y,-y,-z
-x,-x+y,1/3-z
y,x,2/3-z
-y,-x,2/3-z
-x+y,y,-z
x,x-y,1/3-z
loop_
_atom_site_type_symbol
_atom_site_label
_atom_site_fract_x
_atom_site_fract_y
_atom_site_fract_z
Si Si1 0.206863 0.273697 0.976989
Si Si2 0.589081 0.427372 0.964546
Si Si3 0.149740 0.736581 0.680468
Si Si4 0.672328 0.575508 0.098560
Si Si5 0.280740 0.705607 0.701814
Si Si6 0.925279 0.357750 0.910143
Si Si7 0.314617 0.217650 0.954650
O O1 0.240697 0.218888 0.999131
O O2 0.216262 0.303151 0.847171
O O3 0.119131 0.238262 0.000000
O O4 0.256945 0.348520 0.050660
O O5 0.567378 0.432623 0.833334
O O6 0.654264 0.504589 0.018552
O O7 0.605485 0.358546 0.968655
O O8 0.518239 0.399741 0.050164
O O9 0.119303 0.691194 0.563367
O O10 0.232100 0.745996 0.689853
O O11 0.104743 0.689453 0.791883
O O12 0.158882 0.819400 0.666497
O O13 0.599918 0.586014 0.096216
O O14 0.296085 0.703916 0.833334
O O15 0.237512 0.618756 0.666667
O O16 0.914917 0.297916 0.007212
#
# Coordination Sequence:
#
# PCOD9583802 Si02
#       7
#    12  12  12  12  12  12  12
#     4  10  20  38  60  93 129 159 207 253 317 380
#     4  12  25  42  61  87 120 164 216 271 332 387
#     4  12  22  41  64  87 125 162 209 266 325 384
#     4  11  25  37  63  89 120 160 214 264 320 393
#     4  12  24  42  60  85 116 158 214 265 319 376
#     4  11  23  42  59  88 121 168 205 267 329 384
#     4  10  20  37  64  88 122 170 199 258 320 381
#
# _framework density 19.622228
#
# number of rings (size 3 to 8) (size 9 to 14) (size 15 to 20)
#    0.000    0.857    4.286    3.429    0.000    2.857 
#    0.000    1.429    0.000    0.000    0.000    0.000 
#    0.000    2.286    2.857    0.571    0.000    0.286 
#
# Total GULP energy -468783.444713 kJ/mol
# GULP energy per Si atom -5580.755294 kJ/mol
# Density = 1.957757 g / cm^3
# Si number density = 19.622228 Si / 1000 Ang^3
#
#
#
# Elastic Constant Matrix: (Units=GPa)
#
#
# Indices 1 2 3 4 5 6 
#
# 1 68.7483 15.2882 10.3438 0.0000 0.0000 0.0000
# 2 15.2882 68.7483 10.3438 0.0000 0.0000 0.0000
# 3 10.3438 10.3438 96.3901 0.0000 0.0000 0.0000
# 4 0.0000 0.0000 0.0000 18.8386 0.0000 0.0000
# 5 0.0000 0.0000 0.0000 0.0000 18.8386 0.0000
# 6 0.0000 0.0000 0.0000 0.0000 0.0000 26.7300
#
#
#
# Elastic Compliance Matrix: (Units=1/GPa)
#
#
# Indices 1 2 3 4 5 6 
#
# 1 0.015464 -0.003242 -0.001312 0.000000 0.000000 0.000000
# 2 -0.003242 0.015464 -0.001312 0.000000 0.000000 0.000000
# 3 -0.001312 -0.001312 0.010656 0.000000 0.000000 0.000000
# 4 0.000000 0.000000 0.000000 0.053082 0.000000 0.000000
# 5 0.000000 0.000000 0.000000 0.000000 0.053082 0.000000
# 6 0.000000 0.000000 0.000000 0.000000 0.000000 0.037411
#
#
# Mechanical properties :
#
#
# Convention : Reuss Voigt Hill
#
# Bulk Modulus (GPa) = 33.49577 33.98202 33.73890
# Shear Modulus (GPa) = 24.17314 26.07550 25.12432
#
# Velocity S-wave (km/s) = 3.51369 3.64933 3.58215
# Velocity P-wave (km/s) = 5.79385 5.92558 5.86009
#
# Compressibility (1/GPa) = 0.02985452
#
# Stress axis : x y z
#
# Youngs Moduli (GPa) = 64.66625 64.66625 93.84367
#
# Poissons Ratio (x) = 0.20962 0.12309
# Poissons Ratio (y) = 0.20962 0.12309
# Poissons Ratio (z) = 0.08482 0.08482
#
# Static dielectric constant tensor:
#      x y z
#    x 1.714190 0.000000 0.000000 
#    y 0.000000 1.714190 0.000000 
#    z 0.000000 0.000000 1.676660 
# 
# From -- ./inp_files/5034.got.cif
#   From: 2010.05.17/outbox.cif.g08.bks.cpg/sg180_3_cif.got.tgz:5034.got - 2010.05.20 11:43:55.
