data_PCOD9583793
_publ_section_title
;
Structure prediction by ZEFSAII (Michael W. Deem and Ramdas Pophale) SiO2 
 PCOD9583793
Probable space group: P 62 2 2
;
_chemical_formula_sum "Si O2"
_cell_formula_units_Z 72
_cell_length_a 14.874340
_cell_length_b 14.874340
_cell_length_c 17.112313
_cell_angle_alpha 90.000000
_cell_angle_beta 90.000000
_cell_angle_gamma 120.000000
_cell_volume 3278.798712
_symmetry_space_group_name_H-M "P 62 2 2"
_symmetry_group_IT_number 180
_symmetry_cell_setting 'hexagonal'
loop_
_space_group_symop_operation_xyz
x,y,z
x-y,x,1/3+z
-y,x-y,2/3+z
-x,-y,z
-x+y,-x,1/3+z
y,-x+y,2/3+z
x-y,-y,-z
-x,-x+y,1/3-z
y,x,2/3-z
-y,-x,2/3-z
-x+y,y,-z
x,x-y,1/3-z
loop_
_atom_site_type_symbol
_atom_site_label
_atom_site_fract_x
_atom_site_fract_y
_atom_site_fract_z
Si Si1 0.225691 0.090711 0.951959
Si Si2 0.789904 0.595809 0.414431
Si Si3 0.216002 0.929088 0.402375
Si Si4 0.127272 0.392308 0.825324
Si Si5 0.019232 0.409787 0.370949
Si Si6 0.624891 0.377507 0.243318
O O1 0.196007 0.171455 0.915668
O O2 0.286537 0.058650 0.890267
O O3 0.316033 0.143529 0.017039
O O4 0.133234 0.000000 0.000000
O O5 0.821664 0.643328 0.500000
O O6 0.672519 0.500732 0.418665
O O7 0.862277 0.545837 0.395721
O O8 0.137642 0.862358 0.333334
O O9 0.205200 0.844432 0.465546
O O10 0.329957 0.987000 0.366239
O O11 0.055211 0.403008 0.889620
O O12 0.186786 0.498930 0.775702
O O13 0.000000 0.500000 0.346756
O O14 0.646288 0.353713 0.333334
O O15 0.643041 0.321521 0.166667
#
# Coordination Sequence:
#
# PCOD9583793 Si02
#       6
#    12  12  12  12  12  12
#     4  11  22  38  65  93 129 168 220 284 360 416
#     4  10  20  37  57  88 131 163 218 277 339 414
#     4   9  22  42  64  91 127 175 227 283 347 433
#     4  11  22  41  63  94 132 178 223 285 356 421
#     4  10  20  37  64  90 123 177 225 275 344 414
#     4  11  23  40  64  96 138 182 233 289 345 424
#
# _framework density 21.959261000000001
#
# number of rings (size 3 to 8) (size 9 to 14) (size 15 to 20)
#    0.000    1.667    1.667    3.500    0.000    3.667 
#    0.000    0.833    0.000    6.000    0.000    0.000 
#    0.000    0.000    0.000    0.000    0.000    0.000 
#
# Total GULP energy -401305.859973 kJ/mol
# GULP energy per Si atom -5573.692500 kJ/mol
# Density = 2.190928 g / cm^3
# Si number density = 21.959261 Si / 1000 Ang^3
#
#
#
# Elastic Constant Matrix: (Units=GPa)
#
#
# Indices 1 2 3 4 5 6 
#
# 1 85.9660 40.6702 24.5398 0.0000 0.0000 0.0000
# 2 40.6702 85.9660 24.5398 0.0000 0.0000 0.0000
# 3 24.5398 24.5398 102.8611 0.0000 0.0000 0.0000
# 4 0.0000 0.0000 0.0000 26.9867 0.0000 0.0000
# 5 0.0000 0.0000 0.0000 0.0000 26.9867 0.0000
# 6 0.0000 0.0000 0.0000 0.0000 0.0000 22.6479
#
#
#
# Elastic Compliance Matrix: (Units=1/GPa)
#
#
# Indices 1 2 3 4 5 6 
#
# 1 0.015389 -0.006688 -0.002076 0.000000 0.000000 0.000000
# 2 -0.006688 0.015389 -0.002076 0.000000 0.000000 0.000000
# 3 -0.002076 -0.002076 0.010712 0.000000 0.000000 0.000000
# 4 0.000000 0.000000 0.000000 0.037055 0.000000 0.000000
# 5 0.000000 0.000000 0.000000 0.000000 0.037055 0.000000
# 6 0.000000 0.000000 0.000000 0.000000 0.000000 0.044154
#
#
# Mechanical properties :
#
#
# Convention : Reuss Voigt Hill
#
# Bulk Modulus (GPa) = 50.47644 50.47699 50.47672
# Shear Modulus (GPa) = 26.59028 27.66046 27.12537
#
# Velocity S-wave (km/s) = 3.48356 3.55297 3.51844
# Velocity P-wave (km/s) = 6.26231 6.31411 6.28827
#
# Compressibility (1/GPa) = 0.01981122
#
# Stress axis : x y z
#
# Youngs Moduli (GPa) = 64.98089 64.98089 93.35031
#
# Poissons Ratio (x) = 0.43459 0.19378
# Poissons Ratio (y) = 0.43459 0.19378
# Poissons Ratio (z) = 0.13489 0.13489
#
# Static dielectric constant tensor:
#      x y z
#    x 1.809000 0.000000 0.000000 
#    y 0.000000 1.809000 0.000000 
#    z 0.000000 0.000000 1.903080 
# 
# From -- ./inp_files/7806.got.cif
#   From: 2010.05.17/outbox.cif.g08.bks.cpg/sg180_4_cif.got.tgz:7806.got - 2010.05.20 11:43:55.
