data_PCOD9583880
_publ_section_title
;
Structure prediction by ZEFSAII (Michael W. Deem and Ramdas Pophale) SiO2 
 PCOD9583880
Probable space group: P 62 2 2
;
_chemical_formula_sum "Si O2"
_cell_formula_units_Z 30
_cell_length_a 9.739545
_cell_length_b 9.739545
_cell_length_c 13.980891
_cell_angle_alpha 90.000000
_cell_angle_beta 90.000000
_cell_angle_gamma 120.000000
_cell_volume 1148.531256
_symmetry_space_group_name_H-M "P 62 2 2"
_symmetry_group_IT_number 180
_symmetry_cell_setting 'hexagonal'
loop_
_space_group_symop_operation_xyz
x,y,z
x-y,x,1/3+z
-y,x-y,2/3+z
-x,-y,z
-x+y,-x,1/3+z
y,-x+y,2/3+z
x-y,-y,-z
-x,-x+y,1/3-z
y,x,2/3-z
-y,-x,2/3-z
-x+y,y,-z
x,x-y,1/3-z
loop_
_atom_site_type_symbol
_atom_site_label
_atom_site_fract_x
_atom_site_fract_y
_atom_site_fract_z
Si Si1 0.648401 0.351600 0.833334
Si Si2 0.706090 0.837051 0.459063
Si Si3 0.105216 0.685875 0.937804
O O1 0.728184 0.537599 0.830166
O O2 0.727421 0.301246 0.916904
O O3 0.689245 0.867858 0.347075
O O4 0.701605 0.685701 0.509972
O O5 0.845692 0.000000 0.500000
O O6 0.000000 0.500000 0.970323
#
# Coordination Sequence:
#
# PCOD9583880 Si02
#       3
#     6  12  12
#     4  10  21  38  63  92 132 180 228 288 353 432
#     4  11  21  37  63  95 134 177 229 292 359 429
#     4  10  22  38  60  95 134 181 237 295 362 431
#
# _framework density 26.120315000000002
#
# number of rings (size 3 to 8) (size 9 to 14) (size 15 to 20)
#    0.000    1.600    0.000    5.400    0.000    8.000 
#    0.000    7.000    0.000    4.800    0.000    0.000 
#    0.000    0.000    0.000    0.000    0.000    0.000 
#
# Total GULP energy -167458.570988 kJ/mol
# GULP energy per Si atom -5581.952366 kJ/mol
# Density = 2.606086 g / cm^3
# Si number density = 26.120315 Si / 1000 Ang^3
#
#
#
# Elastic Constant Matrix: (Units=GPa)
#
#
# Indices 1 2 3 4 5 6 
#
# 1 130.6785 50.8213 37.0723 0.0000 0.0000 0.0000
# 2 50.8213 130.6785 37.0723 0.0000 0.0000 0.0000
# 3 37.0723 37.0723 173.0826 0.0000 0.0000 0.0000
# 4 0.0000 0.0000 0.0000 47.9313 0.0000 0.0000
# 5 0.0000 0.0000 0.0000 0.0000 47.9313 0.0000
# 6 0.0000 0.0000 0.0000 0.0000 0.0000 39.9286
#
#
#
# Elastic Compliance Matrix: (Units=1/GPa)
#
#
# Indices 1 2 3 4 5 6 
#
# 1 0.009280 -0.003242 -0.001293 0.000000 0.000000 0.000000
# 2 -0.003242 0.009280 -0.001293 0.000000 0.000000 0.000000
# 3 -0.001293 -0.001293 0.006332 0.000000 0.000000 0.000000
# 4 0.000000 0.000000 0.000000 0.020863 0.000000 0.000000
# 5 0.000000 0.000000 0.000000 0.000000 0.020863 0.000000
# 6 0.000000 0.000000 0.000000 0.000000 0.000000 0.025045
#
#
# Mechanical properties :
#
#
# Convention : Reuss Voigt Hill
#
# Bulk Modulus (GPa) = 75.56029 76.04126 75.80077
# Shear Modulus (GPa) = 46.41151 47.78983 47.10067
#
# Velocity S-wave (km/s) = 4.21983 4.28203 4.25104
# Velocity P-wave (km/s) = 7.26176 7.32276 7.29232
#
# Compressibility (1/GPa) = 0.01323447
#
# Stress axis : x y z
#
# Youngs Moduli (GPa) = 107.75684 107.75684 157.93818
#
# Poissons Ratio (x) = 0.34937 0.20426
# Poissons Ratio (y) = 0.34937 0.20426
# Poissons Ratio (z) = 0.13936 0.13936
#
# Static dielectric constant tensor:
#      x y z
#    x 1.990690 0.000000 0.000000 
#    y 0.000000 1.990690 0.000000 
#    z 0.000000 0.000000 2.278750 
# 
# From -- ./inp_files/5346.got.cif
#   From: 2010.05.17/outbox.cif.g08.bks.cpg/sg180_3_cif.got.tgz:5346.got - 2010.05.20 11:43:55.
