data_PCOD9583115
_publ_section_title
;
Structure prediction by ZEFSAII (Michael W. Deem and Ramdas Pophale) SiO2 
 PCOD9583115
Probable space group: P 65 2 2
;
_chemical_formula_sum "Si O2"
_cell_formula_units_Z 84
_cell_length_a 17.694340
_cell_length_b 17.694340
_cell_length_c 21.582237
_cell_angle_alpha 90.000000
_cell_angle_beta 90.000000
_cell_angle_gamma 120.000000
_cell_volume 5851.885570
_symmetry_space_group_name_H-M "P 65 2 2"
_symmetry_group_IT_number 179
_symmetry_cell_setting 'hexagonal'
loop_
_space_group_symop_operation_xyz
x,y,z
x-y,x,5/6+z
-y,x-y,2/3+z
-x,-y,1/2+z
-x+y,-x,1/3+z
y,-x+y,1/6+z
x-y,-y,-z
-x,-x+y,1/3-z
y,x,2/3-z
-y,-x,1/6-z
-x+y,y,1/2-z
x,x-y,5/6-z
loop_
_atom_site_type_symbol
_atom_site_label
_atom_site_fract_x
_atom_site_fract_y
_atom_site_fract_z
Si Si1 0.478676 0.701354 0.099147
Si Si2 0.966330 0.421183 0.861947
Si Si3 0.129209 0.709461 0.019289
Si Si4 0.565166 0.070124 0.445398
Si Si5 0.636071 0.254211 0.679269
Si Si6 0.226973 0.687414 0.644953
Si Si7 0.365891 0.266888 0.838653
O O1 0.390272 0.609729 0.083334
O O2 0.540909 0.666797 0.124579
O O3 0.447441 0.750564 0.146243
O O4 0.506552 0.758947 0.037259
O O5 0.979636 0.489818 0.916667
O O6 0.957891 0.454366 0.793083
O O7 0.047496 0.405005 0.855155
O O8 0.174886 0.811294 0.999924
O O9 0.101858 0.703289 0.090960
O O10 0.199061 0.675892 0.016963
O O11 0.532453 0.136133 0.463347
O O12 0.668660 0.108518 0.456812
O O13 0.526615 0.000000 0.500000
O O14 0.613185 0.226369 0.750000
O O15 0.708645 0.356381 0.678105
O O16 0.256539 0.743462 0.583334
O O17 0.283813 0.283813 0.833334
#
# Coordination Sequence:
#
# PCOD9583115 Si02
#       7
#    12  12  12  12  12  12  12
#     4   9  19  29  44  62  91 123 162 207 245 283
#     4  11  21  34  45  70 101 132 167 219 266 292
#     4  11  20  31  50  69  94 128 171 209 250 311
#     4  11  19  33  50  67  97 131 170 214 257 300
#     4  10  18  26  41  66  87 118 164 204 229 279
#     4  10  18  31  48  64  87 126 165 207 243 288
#     4  10  20  33  48  69  91 125 168 212 253 299
#
# _framework density 14.354347000000001
#
# number of rings (size 3 to 8) (size 9 to 14) (size 15 to 20)
#    0.000    1.714    4.286    4.714    4.000    0.000 
#    0.000    0.000    0.000    0.000    0.000    0.000 
#    0.000    0.000    0.000    5.143    2.857    0.000 
#
# Total GULP energy -467684.844134 kJ/mol
# GULP energy per Si atom -5567.676716 kJ/mol
# Density = 1.432168 g / cm^3
# Si number density = 14.354347 Si / 1000 Ang^3
#
#
#
# Elastic Constant Matrix: (Units=GPa)
#
#
# Indices 1 2 3 4 5 6 
#
# 1 64.5072 28.9343 37.6238 0.0000 0.0000 0.0000
# 2 28.9343 64.5072 37.6238 0.0000 0.0000 0.0000
# 3 37.6238 37.6238 106.6865 0.0000 0.0000 0.0000
# 4 0.0000 0.0000 0.0000 15.9238 0.0000 0.0000
# 5 0.0000 0.0000 0.0000 0.0000 15.9238 0.0000
# 6 0.0000 0.0000 0.0000 0.0000 0.0000 17.7864
#
#
#
# Elastic Compliance Matrix: (Units=1/GPa)
#
#
# Indices 1 2 3 4 5 6 
#
# 1 0.021529 -0.006582 -0.005271 0.000000 0.000000 0.000000
# 2 -0.006582 0.021529 -0.005271 0.000000 0.000000 0.000000
# 3 -0.005271 -0.005271 0.013091 0.000000 0.000000 0.000000
# 4 0.000000 0.000000 0.000000 0.062799 0.000000 0.000000
# 5 0.000000 0.000000 0.000000 0.000000 0.062799 0.000000
# 6 0.000000 0.000000 0.000000 0.000000 0.000000 0.056223
#
#
# Mechanical properties :
#
#
# Convention : Reuss Voigt Hill
#
# Bulk Modulus (GPa) = 45.66196 49.34054 47.50125
# Shear Modulus (GPa) = 17.88791 18.69474 18.29132
#
# Velocity S-wave (km/s) = 3.53394 3.61276 3.57357
# Velocity P-wave (km/s) = 6.96644 7.20073 7.08455
#
# Compressibility (1/GPa) = 0.02190007
#
# Stress axis : x y z
#
# Youngs Moduli (GPa) = 46.44907 46.44907 76.38836
#
# Poissons Ratio (x) = 0.30574 0.40265
# Poissons Ratio (y) = 0.30574 0.40265
# Poissons Ratio (z) = 0.24483 0.24483
#
# Static dielectric constant tensor:
#      x y z
#    x 1.505780 0.000000 0.000000 
#    y 0.000000 1.505780 0.000000 
#    z 0.000000 0.000000 1.509320 
# 
# From -- ./inp_files/7752.got.cif
#   From: 2010.05.17/outbox.cif.g08.bks.cpg/sg179_4_cif.got.tgz:7752.got - 2010.05.20 11:37:33.
