data_PCOD9583444
_publ_section_title
;
Structure prediction by ZEFSAII (Michael W. Deem and Ramdas Pophale) SiO2 
 PCOD9583444
Probable space group: P 65 2 2
;
_chemical_formula_sum "Si O2"
_cell_formula_units_Z 42
_cell_length_a 22.032990
_cell_length_b 22.032990
_cell_length_c 5.129292
_cell_angle_alpha 90.000000
_cell_angle_beta 90.000000
_cell_angle_gamma 120.000000
_cell_volume 2156.427838
_symmetry_space_group_name_H-M "P 65 2 2"
_symmetry_group_IT_number 179
_symmetry_cell_setting 'hexagonal'
loop_
_space_group_symop_operation_xyz
x,y,z
x-y,x,5/6+z
-y,x-y,2/3+z
-x,-y,1/2+z
-x+y,-x,1/3+z
y,-x+y,1/6+z
x-y,-y,-z
-x,-x+y,1/3-z
y,x,2/3-z
-y,-x,1/6-z
-x+y,y,1/2-z
x,x-y,5/6-z
loop_
_atom_site_type_symbol
_atom_site_label
_atom_site_fract_x
_atom_site_fract_y
_atom_site_fract_z
Si Si1 0.730822 0.952117 0.743651
Si Si2 0.565350 0.211642 0.996178
Si Si3 0.919711 0.839422 0.750000
Si Si4 0.577670 0.749009 0.160686
O O1 0.784003 0.921643 0.713909
O O2 0.650461 0.892985 0.766687
O O3 0.740188 0.000000 0.500000
O O4 0.755981 0.000000 0.000000
O O5 0.612146 0.224292 0.250000
O O6 0.485011 0.159122 0.079327
O O7 0.594571 0.189141 0.750000
O O8 0.567676 0.283838 0.916667
O O9 0.888527 0.888527 0.833334
O O10 0.594455 0.797228 0.416667
O O11 0.549995 0.774998 0.916667
#
# Coordination Sequence:
#
# PCOD9583444 Si02
#       4
#    12  12   6  12
#     4  11  24  41  64  90 123 166 215 268 318 381
#     4  11  21  34  56  90 128 162 195 247 315 386
#     4  10  24  40  62  94 130 168 208 266 334 402
#     4  11  22  38  62  90 123 165 215 264 313 381
#
# _framework density 19.476652999999999
#
# number of rings (size 3 to 8) (size 9 to 14) (size 15 to 20)
#    0.000    1.143    1.429    6.857    4.000    1.143 
#    0.000    0.000    0.000    3.429    0.000    0.000 
#    0.000    0.000    0.000    0.000    0.000    0.000 
#
# Total GULP energy -234537.424598 kJ/mol
# GULP energy per Si atom -5584.224395 kJ/mol
# Density = 1.943232 g / cm^3
# Si number density = 19.476653 Si / 1000 Ang^3
#
#
#
# Elastic Constant Matrix: (Units=GPa)
#
#
# Indices 1 2 3 4 5 6 
#
# 1 103.8598 65.0004 29.3802 0.0000 0.0000 0.0000
# 2 65.0004 103.8598 29.3802 0.0000 0.0000 0.0000
# 3 29.3802 29.3802 127.9993 0.0000 0.0000 0.0000
# 4 0.0000 0.0000 0.0000 31.2673 0.0000 0.0000
# 5 0.0000 0.0000 0.0000 0.0000 31.2673 0.0000
# 6 0.0000 0.0000 0.0000 0.0000 0.0000 19.4297
#
#
#
# Elastic Compliance Matrix: (Units=1/GPa)
#
#
# Indices 1 2 3 4 5 6 
#
# 1 0.016085 -0.009649 -0.001477 0.000000 0.000000 0.000000
# 2 -0.009649 0.016085 -0.001477 0.000000 0.000000 0.000000
# 3 -0.001477 -0.001477 0.008491 0.000000 0.000000 0.000000
# 4 0.000000 0.000000 0.000000 0.031982 0.000000 0.000000
# 5 0.000000 0.000000 0.000000 0.000000 0.031982 0.000000
# 6 0.000000 0.000000 0.000000 0.000000 0.000000 0.051468
#
#
# Mechanical properties :
#
#
# Convention : Reuss Voigt Hill
#
# Bulk Modulus (GPa) = 64.70918 64.80448 64.75683
# Shear Modulus (GPa) = 26.81669 30.52339 28.67004
#
# Velocity S-wave (km/s) = 3.71464 3.96306 3.84085
# Velocity P-wave (km/s) = 7.18986 7.36792 7.27943
#
# Compressibility (1/GPa) = 0.01545376
#
# Stress axis : x y z
#
# Youngs Moduli (GPa) = 62.16985 62.16985 117.77555
#
# Poissons Ratio (x) = 0.59987 0.17399
# Poissons Ratio (y) = 0.59987 0.17399
# Poissons Ratio (z) = 0.09184 0.09184
#
# Static dielectric constant tensor:
#      x y z
#    x 1.711150 0.000000 0.000000 
#    y 0.000000 1.711150 0.000000 
#    z 0.000000 0.000000 1.671260 
# 
# From -- ./inp_files/759.got.cif
#   From: 2010.05.17/outbox.cif.g08.bks.cpg/sg179_1_cif.got.tgz:759.got - 2010.05.20 11:37:33.
