data_PCOD9583980
_publ_section_title
;
Structure prediction by ZEFSAII (Michael W. Deem and Ramdas Pophale) SiO2 
 PCOD9583980
Probable space group: P 62 2 2
;
_chemical_formula_sum "Si O2"
_cell_formula_units_Z 48
_cell_length_a 13.910651
_cell_length_b 13.910651
_cell_length_c 13.406237
_cell_angle_alpha 90.000000
_cell_angle_beta 90.000000
_cell_angle_gamma 120.000000
_cell_volume 2246.634554
_symmetry_space_group_name_H-M "P 62 2 2"
_symmetry_group_IT_number 180
_symmetry_cell_setting 'hexagonal'
loop_
_space_group_symop_operation_xyz
x,y,z
x-y,x,1/3+z
-y,x-y,2/3+z
-x,-y,z
-x+y,-x,1/3+z
y,-x+y,2/3+z
x-y,-y,-z
-x,-x+y,1/3-z
y,x,2/3-z
-y,-x,2/3-z
-x+y,y,-z
x,x-y,1/3-z
loop_
_atom_site_type_symbol
_atom_site_label
_atom_site_fract_x
_atom_site_fract_y
_atom_site_fract_z
Si Si1 0.888303 0.247413 0.617502
Si Si2 0.789459 0.792237 0.952926
Si Si3 0.316919 0.430078 0.055967
Si Si4 0.441091 0.761934 0.278080
O O1 0.890033 0.276599 0.501233
O O2 0.775953 0.232055 0.664240
O O3 0.000000 0.343541 0.666667
O O4 0.880850 0.130001 0.640916
O O5 0.790451 0.790451 0.833334
O O6 0.905862 0.811724 0.000000
O O7 0.692379 0.673737 0.995260
O O8 0.422398 0.554282 0.057026
O O9 0.221287 0.442573 0.000000
O O10 0.335372 0.664629 0.333334
O O11 0.444307 0.722154 0.166667
#
# Coordination Sequence:
#
# PCOD9583980 Si02
#       4
#    12  12  12  12
#     4  12  27  45  70 107 151 196 248 308 376 456
#     4  11  23  47  75 104 145 186 250 315 368 443
#     4  10  22  46  73 101 140 184 250 309 369 441
#     4  11  24  45  71 103 146 194 245 305 377 454
#
# _framework density 21.365290999999999
#
# number of rings (size 3 to 8) (size 9 to 14) (size 15 to 20)
#    0.000    1.000    7.500    0.000    3.500    2.000 
#    0.000    2.500    0.000    0.000    0.000    0.000 
#    0.000    0.000    0.000    0.000    0.000    0.000 
#
# Total GULP energy -267763.269843 kJ/mol
# GULP energy per Si atom -5578.401455 kJ/mol
# Density = 2.131666 g / cm^3
# Si number density = 21.365291 Si / 1000 Ang^3
#
#
#
# Elastic Constant Matrix: (Units=GPa)
#
#
# Indices 1 2 3 4 5 6 
#
# 1 120.6131 59.4413 48.5217 0.0000 0.0000 0.0000
# 2 59.4413 120.6131 48.5217 0.0000 0.0000 0.0000
# 3 48.5217 48.5217 165.9593 0.0000 0.0000 0.0000
# 4 0.0000 0.0000 0.0000 8.1590 0.0000 0.0000
# 5 0.0000 0.0000 0.0000 0.0000 8.1590 0.0000
# 6 0.0000 0.0000 0.0000 0.0000 0.0000 30.5859
#
#
#
# Elastic Compliance Matrix: (Units=1/GPa)
#
#
# Indices 1 2 3 4 5 6 
#
# 1 0.011470 -0.004877 -0.001928 0.000000 0.000000 0.000000
# 2 -0.004877 0.011470 -0.001928 0.000000 0.000000 0.000000
# 3 -0.001928 -0.001928 0.007153 0.000000 0.000000 0.000000
# 4 0.000000 0.000000 0.000000 0.122564 0.000000 0.000000
# 5 0.000000 0.000000 0.000000 0.000000 0.122564 0.000000
# 6 0.000000 0.000000 0.000000 0.000000 0.000000 0.032695
#
#
# Mechanical properties :
#
#
# Convention : Reuss Voigt Hill
#
# Bulk Modulus (GPa) = 79.18868 80.01720 79.60294
# Shear Modulus (GPa) = 15.17035 26.09414 20.63225
#
# Velocity S-wave (km/s) = 2.66756 3.49855 3.11093
# Velocity P-wave (km/s) = 6.82880 7.33846 7.08821
#
# Compressibility (1/GPa) = 0.01262807
#
# Stress axis : x y z
#
# Youngs Moduli (GPa) = 87.18329 87.18329 139.80764
#
# Poissons Ratio (x) = 0.42522 0.26948
# Poissons Ratio (y) = 0.42522 0.26948
# Poissons Ratio (z) = 0.16805 0.16805
#
# Static dielectric constant tensor:
#      x y z
#    x 1.829820 0.000000 0.000000 
#    y 0.000000 1.829820 0.000000 
#    z 0.000000 0.000000 1.729340 
# 
# From -- ./inp_files/4380.got.cif
#   From: 2010.05.17/outbox.cif.g08.bks.cpg/sg180_3_cif.got.tgz:4380.got - 2010.05.20 11:43:55.
