data_PCOD9583893
_publ_section_title
;
Structure prediction by ZEFSAII (Michael W. Deem and Ramdas Pophale) SiO2 
 PCOD9583893
Probable space group: P 62 2 2
;
_chemical_formula_sum "Si O2"
_cell_formula_units_Z 42
_cell_length_a 9.173406
_cell_length_b 9.173406
_cell_length_c 26.561081
_cell_angle_alpha 90.000000
_cell_angle_beta 90.000000
_cell_angle_gamma 120.000000
_cell_volume 1935.698030
_symmetry_space_group_name_H-M "P 62 2 2"
_symmetry_group_IT_number 180
_symmetry_cell_setting 'hexagonal'
loop_
_space_group_symop_operation_xyz
x,y,z
x-y,x,1/3+z
-y,x-y,2/3+z
-x,-y,z
-x+y,-x,1/3+z
y,-x+y,2/3+z
x-y,-y,-z
-x,-x+y,1/3-z
y,x,2/3-z
-y,-x,2/3-z
-x+y,y,-z
x,x-y,1/3-z
loop_
_atom_site_type_symbol
_atom_site_label
_atom_site_fract_x
_atom_site_fract_y
_atom_site_fract_z
Si Si1 0.211917 0.423833 0.500000
Si Si2 0.814901 0.917834 0.782419
Si Si3 0.037377 0.351463 0.027401
Si Si4 0.500000 0.000000 0.091598
Si Si5 0.728298 0.000000 0.000000
O O1 0.237073 0.292392 0.535560
O O2 0.373364 0.522582 0.463256
O O3 0.844678 0.844678 0.833334
O O4 0.691461 0.764866 0.748969
O O5 0.000000 0.000000 0.756722
O O6 0.000000 0.500000 0.027843
O O7 0.212179 0.424357 0.000000
O O8 0.902605 0.178018 0.999482
O O9 0.643128 0.021085 0.051509
#
# Coordination Sequence:
#
# PCOD9583893 Si02
#       5
#     6  12  12   6   6
#     4  10  21  40  62 108 135 190 230 296 356 423
#     4   9  19  42  71  92 130 178 237 281 346 421
#     4  12  26  44  70 101 136 183 236 289 353 426
#     4  11  24  40  70 100 150 186 240 291 368 422
#     4  11  25  48  70  96 144 202 234 294 362 438
#
# _framework density 21.697597999999999
#
# number of rings (size 3 to 8) (size 9 to 14) (size 15 to 20)
#    0.000    1.714    0.000    7.286    4.000    2.857 
#    5.143    0.000    0.000    0.000    0.000    0.000 
#    0.000    0.000    0.000    0.000    0.000    0.000 
#
# Total GULP energy -234300.102236 kJ/mol
# GULP energy per Si atom -5578.573863 kJ/mol
# Density = 2.164821 g / cm^3
# Si number density = 21.697598 Si / 1000 Ang^3
#
#
#
# Elastic Constant Matrix: (Units=GPa)
#
#
# Indices 1 2 3 4 5 6 
#
# 1 102.7833 59.0757 59.6081 0.0000 0.0000 0.0000
# 2 59.0757 102.7833 59.6081 0.0000 0.0000 0.0000
# 3 59.6081 59.6081 114.3484 0.0000 0.0000 0.0000
# 4 0.0000 0.0000 0.0000 13.3641 0.0000 0.0000
# 5 0.0000 0.0000 0.0000 0.0000 13.3641 0.0000
# 6 0.0000 0.0000 0.0000 0.0000 0.0000 21.8538
#
#
#
# Elastic Compliance Matrix: (Units=1/GPa)
#
#
# Indices 1 2 3 4 5 6 
#
# 1 0.016454 -0.006425 -0.005228 0.000000 0.000000 0.000000
# 2 -0.006425 0.016454 -0.005228 0.000000 0.000000 0.000000
# 3 -0.005228 -0.005228 0.014196 0.000000 0.000000 0.000000
# 4 0.000000 0.000000 0.000000 0.074827 0.000000 0.000000
# 5 0.000000 0.000000 0.000000 0.000000 0.074827 0.000000
# 6 0.000000 0.000000 0.000000 0.000000 0.000000 0.045759
#
#
# Mechanical properties :
#
#
# Convention : Reuss Voigt Hill
#
# Bulk Modulus (GPa) = 74.95276 75.16655 75.05965
# Shear Modulus (GPa) = 17.81097 19.15795 18.48446
#
# Velocity S-wave (km/s) = 2.86820 2.97468 2.92192
# Velocity P-wave (km/s) = 6.75189 6.82028 6.78617
#
# Compressibility (1/GPa) = 0.01334174
#
# Stress axis : x y z
#
# Youngs Moduli (GPa) = 60.77545 60.77545 70.44437
#
# Poissons Ratio (x) = 0.39050 0.36827
# Poissons Ratio (y) = 0.39050 0.36827
# Poissons Ratio (z) = 0.31772 0.31772
#
# Static dielectric constant tensor:
#      x y z
#    x 1.849750 0.000000 0.000000 
#    y 0.000000 1.849750 0.000000 
#    z 0.000000 0.000000 1.792640 
# 
# From -- ./inp_files/12042.got.cif
#   From: 2010.05.17/outbox.cif.g08.bks.cpg/sg180_7_cif.got.tgz:12042.got - 2010.05.20 11:43:55.
