data_PCOD9583511
_publ_section_title
;
Structure prediction by ZEFSAII (Michael W. Deem and Ramdas Pophale) SiO2 
 PCOD9583511
Probable space group: P 65 2 2
;
_chemical_formula_sum "Si O2"
_cell_formula_units_Z 60
_cell_length_a 11.255538
_cell_length_b 11.255538
_cell_length_c 29.071161
_cell_angle_alpha 90.000000
_cell_angle_beta 90.000000
_cell_angle_gamma 120.000000
_cell_volume 3189.521435
_symmetry_space_group_name_H-M "P 65 2 2"
_symmetry_group_IT_number 179
_symmetry_cell_setting 'hexagonal'
loop_
_space_group_symop_operation_xyz
x,y,z
x-y,x,5/6+z
-y,x-y,2/3+z
-x,-y,1/2+z
-x+y,-x,1/3+z
y,-x+y,1/6+z
x-y,-y,-z
-x,-x+y,1/3-z
y,x,2/3-z
-y,-x,1/6-z
-x+y,y,1/2-z
x,x-y,5/6-z
loop_
_atom_site_type_symbol
_atom_site_label
_atom_site_fract_x
_atom_site_fract_y
_atom_site_fract_z
Si Si1 0.236974 0.139208 0.788600
Si Si2 0.498562 0.708188 0.493614
Si Si3 0.573016 0.615610 0.410427
Si Si4 0.046317 0.953684 0.583334
Si Si5 0.195186 0.526175 0.203920
Si Si6 0.250300 0.250300 0.333334
O O1 0.189054 0.189054 0.833334
O O2 0.372482 0.136175 0.805069
O O3 0.288164 0.262342 0.751409
O O4 0.104972 0.004278 0.771168
O O5 0.497484 0.597462 0.458820
O O6 0.529050 0.834021 0.458964
O O7 0.363411 0.687932 0.519301
O O8 0.546964 0.477100 0.386999
O O9 0.024202 0.844801 0.622698
O O10 0.242899 0.485798 0.250000
O O11 0.133081 0.403596 0.166982
#
# Coordination Sequence:
#
# PCOD9583511 Si02
#       6
#    12  12  12   6  12   6
#     4   9  16  30  53  87 114 130 179 240 299 325
#     4   9  17  33  60  83 104 137 194 249 273 328
#     4   9  17  32  62  85 103 140 190 245 285 333
#     4  12  22  34  54  84 124 156 184 240 294 364
#     4  11  21  39  55  81 116 158 199 232 292 368
#     4  12  24  36  52  78 118 164 194 224 288 374
#
# _framework density 18.811599999999999
#
# number of rings (size 3 to 8) (size 9 to 14) (size 15 to 20)
#    0.000    2.000    4.000    3.600    0.000    0.000 
#    0.000    6.000    0.000    0.000    0.000    0.000 
#    0.000    0.000    0.000    0.000    0.000    0.000 
#
# Total GULP energy -334183.235116 kJ/mol
# GULP energy per Si atom -5569.720585 kJ/mol
# Density = 1.876878 g / cm^3
# Si number density = 18.811600 Si / 1000 Ang^3
#
#
#
# Elastic Constant Matrix: (Units=GPa)
#
#
# Indices 1 2 3 4 5 6 
#
# 1 50.5674 21.6485 26.4995 0.0000 0.0000 0.0000
# 2 21.6485 50.5674 26.4995 0.0000 0.0000 0.0000
# 3 26.4995 26.4995 76.4316 0.0000 0.0000 0.0000
# 4 0.0000 0.0000 0.0000 26.4301 0.0000 0.0000
# 5 0.0000 0.0000 0.0000 0.0000 26.4301 0.0000
# 6 0.0000 0.0000 0.0000 0.0000 0.0000 14.4594
#
#
#
# Elastic Compliance Matrix: (Units=1/GPa)
#
#
# Indices 1 2 3 4 5 6 
#
# 1 0.026576 -0.008003 -0.006440 0.000000 0.000000 0.000000
# 2 -0.008003 0.026576 -0.006440 0.000000 0.000000 0.000000
# 3 -0.006440 -0.006440 0.017549 0.000000 0.000000 0.000000
# 4 0.000000 0.000000 0.000000 0.037836 0.000000 0.000000
# 5 0.000000 0.000000 0.000000 0.000000 0.037836 0.000000
# 6 0.000000 0.000000 0.000000 0.000000 0.000000 0.069159
#
#
# Mechanical properties :
#
#
# Convention : Reuss Voigt Hill
#
# Bulk Modulus (GPa) = 34.55736 36.31794 35.43765
# Shear Modulus (GPa) = 18.73066 20.32519 19.52793
#
# Velocity S-wave (km/s) = 3.15889 3.29060 3.22542
# Velocity P-wave (km/s) = 5.63160 5.81253 5.72278
#
# Compressibility (1/GPa) = 0.02893739
#
# Stress axis : x y z
#
# Youngs Moduli (GPa) = 37.62735 37.62735 56.98360
#
# Poissons Ratio (x) = 0.30113 0.36695
# Poissons Ratio (y) = 0.30113 0.36695
# Poissons Ratio (z) = 0.24230 0.24230
#
# Static dielectric constant tensor:
#      x y z
#    x 1.682150 0.000000 0.000000 
#    y 0.000000 1.682150 0.000000 
#    z 0.000000 0.000000 1.687560 
# 
# From -- ./inp_files/9453.got.cif
#   From: 2010.05.17/outbox.cif.g08.bks.cpg/sg179_5_cif.got.tgz:9453.got - 2010.05.20 11:37:33.
