data_PCOD9583917
_publ_section_title
;
Structure prediction by ZEFSAII (Michael W. Deem and Ramdas Pophale) SiO2 
 PCOD9583917
Probable space group: P 62 2 2
;
_chemical_formula_sum "Si O2"
_cell_formula_units_Z 60
_cell_length_a 15.339006
_cell_length_b 15.339006
_cell_length_c 14.788170
_cell_angle_alpha 90.000000
_cell_angle_beta 90.000000
_cell_angle_gamma 120.000000
_cell_volume 3013.280081
_symmetry_space_group_name_H-M "P 62 2 2"
_symmetry_group_IT_number 180
_symmetry_cell_setting 'hexagonal'
loop_
_space_group_symop_operation_xyz
x,y,z
x-y,x,1/3+z
-y,x-y,2/3+z
-x,-y,z
-x+y,-x,1/3+z
y,-x+y,2/3+z
x-y,-y,-z
-x,-x+y,1/3-z
y,x,2/3-z
-y,-x,2/3-z
-x+y,y,-z
x,x-y,1/3-z
loop_
_atom_site_type_symbol
_atom_site_label
_atom_site_fract_x
_atom_site_fract_y
_atom_site_fract_z
Si Si1 0.138363 0.884184 0.000431
Si Si2 0.553387 0.275699 0.561570
Si Si3 0.423573 0.880715 0.893485
Si Si4 0.390890 0.195445 0.166667
Si Si5 0.217451 0.333769 0.849455
Si Si6 0.910262 0.089739 0.333334
O O1 0.136734 0.819951 0.915340
O O2 0.030814 0.880022 0.004085
O O3 0.156553 0.832586 0.086365
O O4 0.224087 0.000000 0.000000
O O5 0.629226 0.258452 0.500000
O O6 0.586754 0.293377 0.666667
O O7 0.548180 0.366439 0.510567
O O8 0.442774 0.179169 0.558318
O O9 0.309898 0.849927 0.866284
O O10 0.500000 0.000000 0.884031
O O11 0.427495 0.854989 0.000000
O O12 0.299467 0.299467 0.833334
O O13 0.130444 0.251799 0.913286
#
# Coordination Sequence:
#
# PCOD9583917 Si02
#       6
#    12  12  12   6  12   6
#     4  11  24  39  69  98 139 180 226 280 336 410
#     4  12  26  46  71  99 137 175 223 285 346 418
#     4  11  27  47  72 100 139 182 236 297 353 416
#     4  12  26  42  69 106 131 178 236 288 358 418
#     4  10  23  41  65  94 135 177 224 275 335 402
#     4  10  21  44  62  98 138 184 229 276 334 410
#
# _framework density 19.911857000000001
#
# number of rings (size 3 to 8) (size 9 to 14) (size 15 to 20)
#    0.000    1.000    2.000    3.300   11.200    0.400 
#    0.000    4.000    0.000    0.000    0.000    0.000 
#    0.000    0.000    0.000    0.000    0.000    0.000 
#
# Total GULP energy -335303.114625 kJ/mol
# GULP energy per Si atom -5588.385244 kJ/mol
# Density = 1.986654 g / cm^3
# Si number density = 19.911857 Si / 1000 Ang^3
#
#
#
# Elastic Constant Matrix: (Units=GPa)
#
#
# Indices 1 2 3 4 5 6 
#
# 1 63.5993 27.9258 22.8213 0.0000 0.0000 0.0000
# 2 27.9258 63.5993 22.8213 0.0000 0.0000 0.0000
# 3 22.8213 22.8213 160.2077 0.0000 0.0000 0.0000
# 4 0.0000 0.0000 0.0000 34.9186 0.0000 0.0000
# 5 0.0000 0.0000 0.0000 0.0000 34.9186 0.0000
# 6 0.0000 0.0000 0.0000 0.0000 0.0000 17.8367
#
#
#
# Elastic Compliance Matrix: (Units=1/GPa)
#
#
# Indices 1 2 3 4 5 6 
#
# 1 0.019897 -0.008135 -0.001675 0.000000 0.000000 0.000000
# 2 -0.008135 0.019897 -0.001675 0.000000 0.000000 0.000000
# 3 -0.001675 -0.001675 0.006719 0.000000 0.000000 0.000000
# 4 0.000000 0.000000 0.000000 0.028638 0.000000 0.000000
# 5 0.000000 0.000000 0.000000 0.000000 0.028638 0.000000
# 6 0.000000 0.000000 0.000000 0.000000 0.000000 0.056064
#
#
# Mechanical properties :
#
#
# Convention : Reuss Voigt Hill
#
# Bulk Modulus (GPa) = 42.47989 48.28257 45.38123
# Shear Modulus (GPa) = 26.22306 31.79065 29.00685
#
# Velocity S-wave (km/s) = 3.63293 4.00004 3.82090
# Velocity P-wave (km/s) = 6.24322 6.75534 6.50432
#
# Compressibility (1/GPa) = 0.02354055
#
# Stress axis : x y z
#
# Youngs Moduli (GPa) = 50.25945 50.25945 148.82701
#
# Poissons Ratio (x) = 0.40888 0.24934
# Poissons Ratio (y) = 0.40888 0.24934
# Poissons Ratio (z) = 0.08420 0.08420
#
# Static dielectric constant tensor:
#      x y z
#    x 1.661950 0.000000 0.000000 
#    y 0.000000 1.661950 0.000000 
#    z 0.000000 0.000000 2.460570 
# 
# From -- ./inp_files/6162.got.cif
#   From: 2010.05.17/outbox.cif.g08.bks.cpg/sg180_4_cif.got.tgz:6162.got - 2010.05.20 11:43:55.
