data_PCOD9583574
_publ_section_title
;
Structure prediction by ZEFSAII (Michael W. Deem and Ramdas Pophale) SiO2 
 PCOD9583574
Probable space group: P 65 2 2
;
_chemical_formula_sum "Si O2"
_cell_formula_units_Z 60
_cell_length_a 14.141676
_cell_length_b 14.141676
_cell_length_c 15.560888
_cell_angle_alpha 90.000000
_cell_angle_beta 90.000000
_cell_angle_gamma 120.000000
_cell_volume 2695.049674
_symmetry_space_group_name_H-M "P 65 2 2"
_symmetry_group_IT_number 179
_symmetry_cell_setting 'hexagonal'
loop_
_space_group_symop_operation_xyz
x,y,z
x-y,x,5/6+z
-y,x-y,2/3+z
-x,-y,1/2+z
-x+y,-x,1/3+z
y,-x+y,1/6+z
x-y,-y,-z
-x,-x+y,1/3-z
y,x,2/3-z
-y,-x,1/6-z
-x+y,y,1/2-z
x,x-y,5/6-z
loop_
_atom_site_type_symbol
_atom_site_label
_atom_site_fract_x
_atom_site_fract_y
_atom_site_fract_z
Si Si1 0.704628 0.044121 0.720207
Si Si2 0.087154 0.543577 0.416667
Si Si3 0.191064 0.606203 0.240750
Si Si4 0.226600 0.773401 0.083334
Si Si5 0.046347 0.092694 0.250000
Si Si6 0.387125 0.000000 0.500000
Si Si7 0.706707 0.821515 0.717880
O O1 0.726331 0.108196 0.630226
O O2 0.788187 0.126764 0.789117
O O3 0.584838 0.996576 0.759890
O O4 0.721598 0.940246 0.727031
O O5 0.163750 0.620937 0.339406
O O6 0.295400 0.590799 0.250000
O O7 0.214793 0.691820 0.162525
O O8 0.080282 0.494001 0.219953
O O9 0.020788 0.020788 0.333334
O O10 0.174261 0.164256 0.234721
O O11 0.365253 0.085980 0.552746
#
# Coordination Sequence:
#
# PCOD9583574 Si02
#       7
#    12   6  12   6   6   6  12
#     4  12  27  48  74 108 153 205 259 329 407 487
#     4  12  25  48  76 105 149 202 263 326 398 478
#     4  12  27  48  79 114 152 208 265 328 403 493
#     4  12  31  51  74 114 166 212 270 340 412 504
#     4  12  24  43  68 107 147 188 253 320 388 474
#     4  12  24  46  80 114 150 194 264 346 396 484
#     4  12  24  44  76 108 147 197 257 327 404 477
#
# _framework density 22.26304
#
# number of rings (size 3 to 8) (size 9 to 14) (size 15 to 20)
#    0.000    0.000    5.000    4.200    2.800    3.200 
#    0.000    0.000    0.000    0.000    0.000    0.000 
#    0.000    0.000    0.000    0.000    0.000    0.000 
#
# Total GULP energy -334616.559883 kJ/mol
# GULP energy per Si atom -5576.942665 kJ/mol
# Density = 2.221237 g / cm^3
# Si number density = 22.263040 Si / 1000 Ang^3
#
#
#
# Elastic Constant Matrix: (Units=GPa)
#
#
# Indices 1 2 3 4 5 6 
#
# 1 123.5113 -14.2522 37.8469 0.0000 0.0000 0.0000
# 2 -14.2522 123.5113 37.8469 0.0000 0.0000 0.0000
# 3 37.8469 37.8469 153.1551 0.0000 0.0000 0.0000
# 4 0.0000 0.0000 0.0000 50.6165 0.0000 0.0000
# 5 0.0000 0.0000 0.0000 0.0000 50.6165 0.0000
# 6 0.0000 0.0000 0.0000 0.0000 0.0000 68.8818
#
#
#
# Elastic Compliance Matrix: (Units=1/GPa)
#
#
# Indices 1 2 3 4 5 6 
#
# 1 0.009151 0.001892 -0.002729 0.000000 0.000000 0.000000
# 2 0.001892 0.009151 -0.002729 0.000000 0.000000 0.000000
# 3 -0.002729 -0.002729 0.007878 0.000000 0.000000 0.000000
# 4 0.000000 0.000000 0.000000 0.019756 0.000000 0.000000
# 5 0.000000 0.000000 0.000000 0.000000 0.019756 0.000000
# 6 0.000000 0.000000 0.000000 0.000000 0.000000 0.014518
#
#
# Mechanical properties :
#
#
# Convention : Reuss Voigt Hill
#
# Bulk Modulus (GPa) = 52.49726 58.11787 55.30757
# Shear Modulus (GPa) = 53.36675 56.60537 54.98606
#
# Velocity S-wave (km/s) = 4.90133 5.04786 4.97514
# Velocity P-wave (km/s) = 7.46072 7.75476 7.60916
#
# Compressibility (1/GPa) = 0.01904861
#
# Stress axis : x y z
#
# Youngs Moduli (GPa) = 109.27807 109.27807 126.93512
#
# Poissons Ratio (x) = -0.20677 0.34640
# Poissons Ratio (y) = -0.20677 0.34640
# Poissons Ratio (z) = 0.29821 0.29821
#
# Static dielectric constant tensor:
#      x y z
#    x 1.778700 0.000000 0.000000 
#    y 0.000000 1.778700 0.000000 
#    z 0.000000 0.000000 1.851170 
# 
# From -- ./inp_files/5883.got.cif
#   From: 2010.05.17/outbox.cif.g08.bks.cpg/sg179_3_cif.got.tgz:5883.got - 2010.05.20 11:37:33.
