data_PCOD9584772
_publ_section_title
;
Structure prediction by ZEFSAII (Michael W. Deem and Ramdas Pophale) SiO2 
 PCOD9584772
Probable space group: P 63 2 2
;
_chemical_formula_sum "Si O2"
_cell_formula_units_Z 42
_cell_length_a 13.884262
_cell_length_b 13.884262
_cell_length_c 11.848983
_cell_angle_alpha 90.000000
_cell_angle_beta 90.000000
_cell_angle_gamma 120.000000
_cell_volume 1978.141293
_symmetry_space_group_name_H-M "P 63 2 2"
_symmetry_group_IT_number 182
_symmetry_cell_setting 'hexagonal'
loop_
_space_group_symop_operation_xyz
x,y,z
x-y,x,1/2+z
-y,x-y,z
-x,-y,1/2+z
-x+y,-x,z
y,-x+y,1/2+z
x-y,-y,-z
-x,-x+y,-z
y,x,-z
-y,-x,1/2-z
-x+y,y,1/2-z
x,x-y,1/2-z
loop_
_atom_site_type_symbol
_atom_site_label
_atom_site_fract_x
_atom_site_fract_y
_atom_site_fract_z
Si Si1 0.765759 0.105786 0.921708
Si Si2 0.290994 0.357812 0.743394
Si Si3 0.794552 0.336129 0.425516
Si Si4 0.000000 0.696576 0.500000
O O1 0.729979 0.050408 0.799725
O O2 0.686844 0.154911 0.962379
O O3 0.891728 0.192090 0.955369
O O4 0.731097 0.000000 0.000000
O O5 0.158129 0.316258 0.750000
O O6 0.338277 0.466433 0.823685
O O7 0.334479 0.373031 0.615764
O O8 0.767326 0.435137 0.420097
#
# Coordination Sequence:
#
# PCOD9584772 Si02
#       4
#    12  12  12   6
#     4  10  21  44  68 101 145 179 244 293 352 424
#     4  11  22  43  70 104 145 190 231 301 351 428
#     4   9  21  44  73 101 133 186 246 294 346 425
#     4  12  22  42  68 102 148 192 228 294 356 430
#
# _framework density 21.232051999999999
#
# number of rings (size 3 to 8) (size 9 to 14) (size 15 to 20)
#    0.571    1.143    5.714    0.857    0.000    1.143 
#    8.571    0.000    0.000    8.571    0.000    0.000 
#    0.000    0.000    0.000    0.000    0.000    0.000 
#
# Total GULP energy -233820.879870 kJ/mol
# GULP energy per Si atom -5567.163806 kJ/mol
# Density = 2.118373 g / cm^3
# Si number density = 21.232052 Si / 1000 Ang^3
#
#
#
# Elastic Constant Matrix: (Units=GPa)
#
#
# Indices 1 2 3 4 5 6 
#
# 1 70.8185 3.4422 19.0765 0.0000 0.0000 0.0000
# 2 3.4422 70.8185 19.0765 0.0000 0.0000 0.0000
# 3 19.0765 19.0765 144.4514 0.0000 0.0000 0.0000
# 4 0.0000 0.0000 0.0000 26.4240 0.0000 0.0000
# 5 0.0000 0.0000 0.0000 0.0000 26.4240 0.0000
# 6 0.0000 0.0000 0.0000 0.0000 0.0000 33.6881
#
#
#
# Elastic Compliance Matrix: (Units=1/GPa)
#
#
# Indices 1 2 3 4 5 6 
#
# 1 0.014644 -0.000198 -0.001908 0.000000 0.000000 0.000000
# 2 -0.000198 0.014644 -0.001908 0.000000 0.000000 0.000000
# 3 -0.001908 -0.001908 0.007427 0.000000 0.000000 0.000000
# 4 0.000000 0.000000 0.000000 0.037844 0.000000 0.000000
# 5 0.000000 0.000000 0.000000 0.000000 0.037844 0.000000
# 6 0.000000 0.000000 0.000000 0.000000 0.000000 0.029684
#
#
# Mechanical properties :
#
#
# Convention : Reuss Voigt Hill
#
# Bulk Modulus (GPa) = 34.85786 41.03098 37.94442
# Shear Modulus (GPa) = 31.31316 33.60678 32.45997
#
# Velocity S-wave (km/s) = 3.84449 3.98280 3.91425
# Velocity P-wave (km/s) = 6.01332 6.36531 6.19182
#
# Compressibility (1/GPa) = 0.02868793
#
# Stress axis : x y z
#
# Youngs Moduli (GPa) = 68.28675 68.28675 134.65048
#
# Poissons Ratio (x) = 0.01351 0.25689
# Poissons Ratio (y) = 0.01351 0.25689
# Poissons Ratio (z) = 0.13028 0.13028
#
# Static dielectric constant tensor:
#      x y z
#    x 1.789270 0.000000 0.000000 
#    y 0.000000 1.789270 0.000000 
#    z 0.000000 0.000000 1.872200 
# 
# From -- ./inp_files/2315.got.cif
#   From: 2010.05.17/outbox.cif.g08.bks.cpg/sg182_2_cif.got.tgz:2315.got - 2010.05.20 11:58:53.
