data_PCOD9584001
_publ_section_title
;
Structure prediction by ZEFSAII (Michael W. Deem and Ramdas Pophale) SiO2 
 PCOD9584001
Probable space group: P 62 2 2
;
_chemical_formula_sum "Si O2"
_cell_formula_units_Z 51
_cell_length_a 10.969191
_cell_length_b 10.969191
_cell_length_c 22.131463
_cell_angle_alpha 90.000000
_cell_angle_beta 90.000000
_cell_angle_gamma 120.000000
_cell_volume 2306.162750
_symmetry_space_group_name_H-M "P 62 2 2"
_symmetry_group_IT_number 180
_symmetry_cell_setting 'hexagonal'
loop_
_space_group_symop_operation_xyz
x,y,z
x-y,x,1/3+z
-y,x-y,2/3+z
-x,-y,z
-x+y,-x,1/3+z
y,-x+y,2/3+z
x-y,-y,-z
-x,-x+y,1/3-z
y,x,2/3-z
-y,-x,2/3-z
-x+y,y,-z
x,x-y,1/3-z
loop_
_atom_site_type_symbol
_atom_site_label
_atom_site_fract_x
_atom_site_fract_y
_atom_site_fract_z
Si Si1 0.808976 0.170869 0.178982
Si Si2 0.375380 0.030714 0.401264
Si Si3 0.893363 0.106638 0.833334
Si Si4 0.500000 0.000000 0.224101
Si Si5 0.786079 0.192473 0.715541
Si Si6 0.500000 0.000000 0.000000
O O1 0.863620 0.284007 0.125361
O O2 0.884368 0.247251 0.241038
O O3 0.858317 0.059322 0.164625
O O4 0.641753 0.078741 0.185134
O O5 0.342527 0.105433 0.346382
O O6 0.500000 0.000000 0.386040
O O7 0.848551 0.150019 0.771391
O O8 0.496254 0.872228 0.262401
O O9 0.890856 0.357575 0.702873
#
# Coordination Sequence:
#
# PCOD9584001 Si02
#       6
#    12  12   6   6  12   3
#     4  10  23  44  70 103 144 189 257 313 379 458
#     4  11  24  45  72 109 140 197 257 310 380 467
#     4  10  24  45  66 102 142 197 242 308 388 459
#     4  10  24  45  72 102 146 205 248 308 382 473
#     4  11  25  44  69 107 150 193 253 305 395 446
#     4  12  28  46  72 114 156 192 244 346 362 462
#
# _framework density 22.114657000000001
#
# number of rings (size 3 to 8) (size 9 to 14) (size 15 to 20)
#    0.000    1.412    1.176    2.824    3.294   14.118 
#   12.706    0.000    0.000   16.941    0.000    0.000 
#    0.000    0.000    0.000    0.000    0.000    0.000 
#
# Total GULP energy -284519.758988 kJ/mol
# GULP energy per Si atom -5578.818804 kJ/mol
# Density = 2.206432 g / cm^3
# Si number density = 22.114657 Si / 1000 Ang^3
#
#
#
# Elastic Constant Matrix: (Units=GPa)
#
#
# Indices 1 2 3 4 5 6 
#
# 1 133.2712 45.4085 47.2890 0.0000 0.0000 0.0000
# 2 45.4085 133.2712 47.2890 0.0000 0.0000 0.0000
# 3 47.2890 47.2890 132.9934 0.0000 0.0000 0.0000
# 4 0.0000 0.0000 0.0000 7.0630 0.0000 0.0000
# 5 0.0000 0.0000 0.0000 0.0000 7.0630 0.0000
# 6 0.0000 0.0000 0.0000 0.0000 0.0000 43.9314
#
#
#
# Elastic Compliance Matrix: (Units=1/GPa)
#
#
# Indices 1 2 3 4 5 6 
#
# 1 0.009138 -0.002244 -0.002451 0.000000 0.000000 0.000000
# 2 -0.002244 0.009138 -0.002451 0.000000 0.000000 0.000000
# 3 -0.002451 -0.002451 0.009262 0.000000 0.000000 0.000000
# 4 0.000000 0.000000 0.000000 0.141582 0.000000 0.000000
# 5 0.000000 0.000000 0.000000 0.000000 0.141582 0.000000
# 6 0.000000 0.000000 0.000000 0.000000 0.000000 0.022763
#
#
# Mechanical properties :
#
#
# Convention : Reuss Voigt Hill
#
# Bulk Modulus (GPa) = 75.49874 75.50098 75.49986
# Shear Modulus (GPa) = 14.19754 28.91478 21.55616
#
# Velocity S-wave (km/s) = 2.53651 3.61985 3.12548
# Velocity P-wave (km/s) = 6.54159 7.18929 6.87307
#
# Compressibility (1/GPa) = 0.01324525
#
# Stress axis : x y z
#
# Youngs Moduli (GPa) = 109.43585 109.43585 107.96260
#
# Poissons Ratio (x) = 0.24553 0.26466
# Poissons Ratio (y) = 0.24553 0.26466
# Poissons Ratio (z) = 0.26827 0.26827
#
# Static dielectric constant tensor:
#      x y z
#    x 1.823680 0.000000 0.000000 
#    y 0.000000 1.823680 0.000000 
#    z 0.000000 0.000000 1.669940 
# 
# From -- ./inp_files/8935.got.cif
#   From: 2010.05.17/outbox.cif.g08.bks.cpg/sg180_5_cif.got.tgz:8935.got - 2010.05.20 11:43:55.
