data_PCOD9584529
_publ_section_title
;
Structure prediction by ZEFSAII (Michael W. Deem and Ramdas Pophale) SiO2 
 PCOD9584529
Probable space group: P 64 2 2
;
_chemical_formula_sum "Si O2"
_cell_formula_units_Z 66
_cell_length_a 19.915522
_cell_length_b 19.915522
_cell_length_c 10.132407
_cell_angle_alpha 90.000000
_cell_angle_beta 90.000000
_cell_angle_gamma 120.000000
_cell_volume 3480.379854
_symmetry_space_group_name_H-M "P 64 2 2"
_symmetry_group_IT_number 181
_symmetry_cell_setting 'hexagonal'
loop_
_space_group_symop_operation_xyz
x,y,z
x-y,x,2/3+z
-y,x-y,1/3+z
-x,-y,z
-x+y,-x,2/3+z
y,-x+y,1/3+z
x-y,-y,-z
-x,-x+y,2/3-z
y,x,1/3-z
-y,-x,1/3-z
-x+y,y,-z
x,x-y,2/3-z
loop_
_atom_site_type_symbol
_atom_site_label
_atom_site_fract_x
_atom_site_fract_y
_atom_site_fract_z
Si Si1 0.311682 0.778391 0.039252
Si Si2 0.092732 0.867666 0.319578
Si Si3 0.784275 0.469056 0.874965
Si Si4 0.776262 0.776262 0.166667
Si Si5 0.290285 0.378922 0.703135
Si Si6 0.891859 0.268735 0.672860
O O1 0.275413 0.724588 0.166667
O O2 0.393507 0.787014 0.000000
O O3 0.254434 0.739370 0.916544
O O4 0.314103 0.859726 0.051192
O O5 0.110331 0.889670 0.166667
O O6 0.147508 0.938156 0.418287
O O7 0.111487 0.798950 0.348920
O O8 0.000000 0.831941 0.333334
O O9 0.792223 0.396112 0.833334
O O10 0.865036 0.546135 0.907451
O O11 0.726128 0.452256 0.000000
O O12 0.747067 0.704296 0.064895
O O13 0.341051 0.341051 0.666667
O O14 0.301360 0.395117 0.858918
O O15 0.815247 0.184754 0.666667
#
# Coordination Sequence:
#
# PCOD9584529 Si02
#       6
#    12  12  12   6  12  12
#     4  12  24  38  64  99 132 175 218 271 332 391
#     4  11  24  40  65  95 125 168 218 273 333 403
#     4  11  21  40  66  95 133 169 218 272 320 393
#     4  12  22  40  70  90 130 170 216 272 334 400
#     4  11  23  43  66  94 132 169 224 274 322 399
#     4  11  22  42  67  93 125 173 220 265 326 394
#
# _framework density 18.963446000000001
#
# number of rings (size 3 to 8) (size 9 to 14) (size 15 to 20)
#    0.000    0.727    5.455    4.909    0.000    1.818 
#    0.000    1.818    4.000    0.000    0.000    0.000 
#    0.000    0.000    0.000    0.000    0.000    0.000 
#
# Total GULP energy -368605.756122 kJ/mol
# GULP energy per Si atom -5584.935699 kJ/mol
# Density = 1.892028 g / cm^3
# Si number density = 18.963446 Si / 1000 Ang^3
#
#
#
# Elastic Constant Matrix: (Units=GPa)
#
#
# Indices 1 2 3 4 5 6 
#
# 1 99.5656 65.5190 36.4965 0.0000 0.0000 0.0000
# 2 65.5190 99.5656 36.4965 0.0000 0.0000 0.0000
# 3 36.4965 36.4965 98.7714 0.0000 0.0000 0.0000
# 4 0.0000 0.0000 0.0000 30.1312 0.0000 0.0000
# 5 0.0000 0.0000 0.0000 0.0000 30.1312 0.0000
# 6 0.0000 0.0000 0.0000 0.0000 0.0000 17.0233
#
#
#
# Elastic Compliance Matrix: (Units=1/GPa)
#
#
# Indices 1 2 3 4 5 6 
#
# 1 0.018306 -0.011066 -0.002675 0.000000 0.000000 0.000000
# 2 -0.011066 0.018306 -0.002675 0.000000 0.000000 0.000000
# 3 -0.002675 -0.002675 0.012102 0.000000 0.000000 0.000000
# 4 0.000000 0.000000 0.000000 0.033188 0.000000 0.000000
# 5 0.000000 0.000000 0.000000 0.000000 0.033188 0.000000
# 6 0.000000 0.000000 0.000000 0.000000 0.000000 0.058743
#
#
# Mechanical properties :
#
#
# Convention : Reuss Voigt Hill
#
# Bulk Modulus (GPa) = 62.96879 63.88073 63.42476
# Shear Modulus (GPa) = 23.58947 26.08320 24.83634
#
# Velocity S-wave (km/s) = 3.53079 3.71272 3.62290
# Velocity P-wave (km/s) = 7.06395 7.22070 7.14275
#
# Compressibility (1/GPa) = 0.01588088
#
# Stress axis : x y z
#
# Youngs Moduli (GPa) = 54.62700 54.62700 82.63426
#
# Poissons Ratio (x) = 0.60448 0.22108
# Poissons Ratio (y) = 0.60448 0.22108
# Poissons Ratio (z) = 0.14615 0.14615
#
# Static dielectric constant tensor:
#      x y z
#    x 1.704590 0.000000 0.000000 
#    y 0.000000 1.704590 0.000000 
#    z 0.000000 0.000000 1.521010 
# 
# From -- ./inp_files/3205.got.cif
#   From: 2010.05.17/outbox.cif.g08.bks.cpg/sg181_2_cif.got.tgz:3205.got - 2010.05.20 11:51:17.
