data_PCOD9584041
_publ_section_title
;
Structure prediction by ZEFSAII (Michael W. Deem and Ramdas Pophale) SiO2 
 PCOD9584041
Probable space group: P 62 2 2
;
_chemical_formula_sum "Si O2"
_cell_formula_units_Z 36
_cell_length_a 10.745081
_cell_length_b 10.745081
_cell_length_c 15.990743
_cell_angle_alpha 90.000000
_cell_angle_beta 90.000000
_cell_angle_gamma 120.000000
_cell_volume 1598.890281
_symmetry_space_group_name_H-M "P 62 2 2"
_symmetry_group_IT_number 180
_symmetry_cell_setting 'hexagonal'
loop_
_space_group_symop_operation_xyz
x,y,z
x-y,x,1/3+z
-y,x-y,2/3+z
-x,-y,z
-x+y,-x,1/3+z
y,-x+y,2/3+z
x-y,-y,-z
-x,-x+y,1/3-z
y,x,2/3-z
-y,-x,2/3-z
-x+y,y,-z
x,x-y,1/3-z
loop_
_atom_site_type_symbol
_atom_site_label
_atom_site_fract_x
_atom_site_fract_y
_atom_site_fract_z
Si Si1 0.000000 0.500000 0.006922
Si Si2 0.992288 0.762431 0.068912
Si Si3 0.461170 0.737409 0.075801
Si Si4 0.702488 0.702488 0.333334
O O1 0.113464 0.623872 0.946596
O O2 0.048025 0.404838 0.061957
O O3 0.000000 0.803851 0.166667
O O4 0.889787 0.779574 0.000000
O O5 0.153754 0.875623 0.040941
O O6 0.393449 0.696725 0.166667
O O7 0.358487 0.716975 0.000000
O O8 0.582392 0.905821 0.069161
#
# Coordination Sequence:
#
# PCOD9584041 Si02
#       4
#     6  12  12   6
#     4  10  25  44  69 102 138 190 238 301 363 442
#     4  11  25  44  71 102 144 187 246 301 369 436
#     4  11  26  45  72 104 146 190 244 300 371 438
#     4  10  26  42  68 102 140 192 232 306 362 440
#
# _framework density 22.515616999999999
#
# number of rings (size 3 to 8) (size 9 to 14) (size 15 to 20)
#    0.000    1.333    0.000    2.500   14.000    9.333 
#    0.000    0.000    0.000    0.000    0.000    0.000 
#    0.000    0.000    0.000    0.000    0.000    0.000 
#
# Total GULP energy -200596.945506 kJ/mol
# GULP energy per Si atom -5572.137375 kJ/mol
# Density = 2.246437 g / cm^3
# Si number density = 22.515617 Si / 1000 Ang^3
#
#
#
# Elastic Constant Matrix: (Units=GPa)
#
#
# Indices 1 2 3 4 5 6 
#
# 1 73.9310 24.2572 35.9888 0.0000 0.0000 0.0000
# 2 24.2572 73.9310 35.9888 0.0000 0.0000 0.0000
# 3 35.9888 35.9888 193.6606 0.0000 0.0000 0.0000
# 4 0.0000 0.0000 0.0000 12.5635 0.0000 0.0000
# 5 0.0000 0.0000 0.0000 0.0000 12.5635 0.0000
# 6 0.0000 0.0000 0.0000 0.0000 0.0000 24.8369
#
#
#
# Elastic Compliance Matrix: (Units=1/GPa)
#
#
# Indices 1 2 3 4 5 6 
#
# 1 0.015961 -0.004170 -0.002191 0.000000 0.000000 0.000000
# 2 -0.004170 0.015961 -0.002191 0.000000 0.000000 0.000000
# 3 -0.002191 -0.002191 0.005978 0.000000 0.000000 0.000000
# 4 0.000000 0.000000 0.000000 0.079596 0.000000 0.000000
# 5 0.000000 0.000000 0.000000 0.000000 0.079596 0.000000
# 6 0.000000 0.000000 0.000000 0.000000 0.000000 0.040263
#
#
# Mechanical properties :
#
#
# Convention : Reuss Voigt Hill
#
# Bulk Modulus (GPa) = 48.08839 59.33246 53.71042
# Shear Modulus (GPa) = 19.12846 26.34531 22.73688
#
# Velocity S-wave (km/s) = 2.91789 3.42437 3.18123
# Velocity P-wave (km/s) = 5.72331 6.48413 6.11556
#
# Compressibility (1/GPa) = 0.02079504
#
# Stress axis : x y z
#
# Youngs Moduli (GPa) = 62.65255 62.65255 167.27866
#
# Poissons Ratio (x) = 0.26128 0.36653
# Poissons Ratio (y) = 0.26128 0.36653
# Poissons Ratio (z) = 0.13728 0.13728
#
# Static dielectric constant tensor:
#      x y z
#    x 1.922080 0.000000 0.000000 
#    y 0.000000 1.922080 0.000000 
#    z 0.000000 0.000000 1.906270 
# 
# From -- ./inp_files/5561.got.cif
#   From: 2010.05.17/outbox.cif.g08.bks.cpg/sg180_3_cif.got.tgz:5561.got - 2010.05.20 11:43:55.
