data_PCOD9584449
_publ_section_title
;
Structure prediction by ZEFSAII (Michael W. Deem and Ramdas Pophale) SiO2 
 PCOD9584449
Probable space group: P 64 2 2
;
_chemical_formula_sum "Si O2"
_cell_formula_units_Z 36
_cell_length_a 11.149868
_cell_length_b 11.149868
_cell_length_c 13.015467
_cell_angle_alpha 90.000000
_cell_angle_beta 90.000000
_cell_angle_gamma 120.000000
_cell_volume 1401.295860
_symmetry_space_group_name_H-M "P 64 2 2"
_symmetry_group_IT_number 181
_symmetry_cell_setting 'hexagonal'
loop_
_space_group_symop_operation_xyz
x,y,z
x-y,x,2/3+z
-y,x-y,1/3+z
-x,-y,z
-x+y,-x,2/3+z
y,-x+y,1/3+z
x-y,-y,-z
-x,-x+y,2/3-z
y,x,1/3-z
-y,-x,1/3-z
-x+y,y,-z
x,x-y,2/3-z
loop_
_atom_site_type_symbol
_atom_site_label
_atom_site_fract_x
_atom_site_fract_y
_atom_site_fract_z
Si Si1 0.301965 0.486965 0.889842
Si Si2 0.246049 0.759672 0.998924
Si Si3 0.977871 0.182967 0.075860
O O1 0.224930 0.499372 0.789428
O O2 0.290060 0.338497 0.875801
O O3 0.231474 0.462947 0.000000
O O4 0.440529 0.629967 0.921206
O O5 0.414395 0.828789 0.000000
O O6 0.160405 0.835078 0.021905
O O7 0.925898 0.074103 0.166667
O O8 0.085561 0.171121 0.000000
#
# Coordination Sequence:
#
# PCOD9584449 Si02
#       3
#    12  12  12
#     4  10  22  42  73 110 148 196 255 330 410 493
#     4  11  22  44  77 112 151 196 262 341 413 491
#     4  11  26  49  75 110 156 212 268 331 417 517
#
# _framework density 25.690505999999999
#
# number of rings (size 3 to 8) (size 9 to 14) (size 15 to 20)
#    0.000    1.333    0.000    7.000    0.000    6.667 
#    0.000   25.000    0.000    0.000    0.000    0.000 
#    0.000    0.000    0.000    0.000    0.000    0.000 
#
# Total GULP energy -200516.976516 kJ/mol
# GULP energy per Si atom -5569.916014 kJ/mol
# Density = 2.563203 g / cm^3
# Si number density = 25.690506 Si / 1000 Ang^3
#
#
#
# Elastic Constant Matrix: (Units=GPa)
#
#
# Indices 1 2 3 4 5 6 
#
# 1 140.0033 110.4971 72.6156 0.0000 0.0000 0.0000
# 2 110.4971 140.0033 72.6156 0.0000 0.0000 0.0000
# 3 72.6156 72.6156 181.3190 0.0000 0.0000 0.0000
# 4 0.0000 0.0000 0.0000 101.3793 0.0000 0.0000
# 5 0.0000 0.0000 0.0000 0.0000 101.3793 0.0000
# 6 0.0000 0.0000 0.0000 0.0000 0.0000 14.7531
#
#
#
# Elastic Compliance Matrix: (Units=1/GPa)
#
#
# Indices 1 2 3 4 5 6 
#
# 1 0.019545 -0.014346 -0.002082 0.000000 0.000000 0.000000
# 2 -0.014346 0.019545 -0.002082 0.000000 0.000000 0.000000
# 3 -0.002082 -0.002082 0.007183 0.000000 0.000000 0.000000
# 4 0.000000 0.000000 0.000000 0.009864 0.000000 0.000000
# 5 0.000000 0.000000 0.000000 0.000000 0.009864 0.000000
# 6 0.000000 0.000000 0.000000 0.000000 0.000000 0.067782
#
#
# Mechanical properties :
#
#
# Convention : Reuss Voigt Hill
#
# Bulk Modulus (GPa) = 108.07878 108.08691 108.08284
# Shear Modulus (GPa) = 28.75401 57.20881 42.98141
#
# Velocity S-wave (km/s) = 3.34914 4.72407 4.09473
# Velocity P-wave (km/s) = 7.55755 8.48055 8.03232
#
# Compressibility (1/GPa) = 0.00925251
#
# Stress axis : x y z
#
# Youngs Moduli (GPa) = 51.16340 51.16340 139.21902
#
# Poissons Ratio (x) = 0.73399 0.28988
# Poissons Ratio (y) = 0.73399 0.28988
# Poissons Ratio (z) = 0.10653 0.10653
#
# Static dielectric constant tensor:
#      x y z
#    x 2.103880 0.000000 0.000000 
#    y 0.000000 2.103880 0.000000 
#    z 0.000000 0.000000 2.058850 
# 
# From -- ./inp_files/5516.got.cif
#   From: 2010.05.17/outbox.cif.g08.bks.cpg/sg181_3_cif.got.tgz:5516.got - 2010.05.20 11:51:17.
