data_PCOD9584057
_publ_section_title
;
Structure prediction by ZEFSAII (Michael W. Deem and Ramdas Pophale) SiO2 
 PCOD9584057
Probable space group: P 62 2 2
;
_chemical_formula_sum "Si O2"
_cell_formula_units_Z 57
_cell_length_a 15.504202
_cell_length_b 15.504202
_cell_length_c 17.371090
_cell_angle_alpha 90.000000
_cell_angle_beta 90.000000
_cell_angle_gamma 120.000000
_cell_volume 3616.234109
_symmetry_space_group_name_H-M "P 62 2 2"
_symmetry_group_IT_number 180
_symmetry_cell_setting 'hexagonal'
loop_
_space_group_symop_operation_xyz
x,y,z
x-y,x,1/3+z
-y,x-y,2/3+z
-x,-y,z
-x+y,-x,1/3+z
y,-x+y,2/3+z
x-y,-y,-z
-x,-x+y,1/3-z
y,x,2/3-z
-y,-x,2/3-z
-x+y,y,-z
x,x-y,1/3-z
loop_
_atom_site_type_symbol
_atom_site_label
_atom_site_fract_x
_atom_site_fract_y
_atom_site_fract_z
Si Si1 0.081988 0.758354 0.056437
Si Si2 0.318267 0.171897 0.776147
Si Si3 0.800617 0.947151 0.246933
Si Si4 0.460468 0.577692 0.924889
Si Si5 0.000000 0.000000 0.666667
Si Si6 0.502258 0.751129 0.666667
O O1 0.133409 0.819643 0.132797
O O2 0.119906 0.679500 0.054050
O O3 0.962297 0.708694 0.074292
O O4 0.104752 0.822870 0.979817
O O5 0.423065 0.197830 0.738960
O O6 0.239224 0.058668 0.758928
O O7 0.777519 0.888759 0.166667
O O8 0.905772 0.967513 0.279247
O O9 0.500000 0.500000 0.937311
O O10 0.431938 0.568063 0.833334
O O11 0.364937 0.556748 0.975778
#
# Coordination Sequence:
#
# PCOD9584057 Si02
#       6
#    12  12  12  12   3   6
#     4  11  20  35  52  78 118 147 178 243 298 341
#     4  11  19  35  54  79 113 144 186 235 292 342
#     4  12  23  33  52  80 118 162 194 227 281 355
#     4  11  19  34  58  85 112 140 184 248 305 354
#     4  12  20  36  48  82 116 156 208 234 262 336
#     4  12  19  34  60  87 104 139 194 236 307 356
#
# _framework density 15.762255
#
# number of rings (size 3 to 8) (size 9 to 14) (size 15 to 20)
#    0.000    0.632    8.421    2.842    2.947    0.000 
#    0.000    1.053    0.000    0.000    0.000    0.000 
#    0.000    0.000    0.000    0.000    0.000    0.000 
#
# Total GULP energy -317703.619525 kJ/mol
# GULP energy per Si atom -5573.747711 kJ/mol
# Density = 1.572638 g / cm^3
# Si number density = 15.762255 Si / 1000 Ang^3
#
#
#
# Elastic Constant Matrix: (Units=GPa)
#
#
# Indices 1 2 3 4 5 6 
#
# 1 71.2628 37.5566 57.5773 0.0000 0.0000 0.0000
# 2 37.5566 71.2628 57.5773 0.0000 0.0000 0.0000
# 3 57.5773 57.5773 147.3577 0.0000 0.0000 0.0000
# 4 0.0000 0.0000 0.0000 21.7814 0.0000 0.0000
# 5 0.0000 0.0000 0.0000 0.0000 21.7814 0.0000
# 6 0.0000 0.0000 0.0000 0.0000 0.0000 16.8531
#
#
#
# Elastic Compliance Matrix: (Units=1/GPa)
#
#
# Indices 1 2 3 4 5 6 
#
# 1 0.022668 -0.007000 -0.006122 0.000000 0.000000 0.000000
# 2 -0.007000 0.022668 -0.006122 0.000000 0.000000 0.000000
# 3 -0.006122 -0.006122 0.011570 0.000000 0.000000 0.000000
# 4 0.000000 0.000000 0.000000 0.045911 0.000000 0.000000
# 5 0.000000 0.000000 0.000000 0.000000 0.045911 0.000000
# 6 0.000000 0.000000 0.000000 0.000000 0.000000 0.059336
#
#
# Mechanical properties :
#
#
# Convention : Reuss Voigt Hill
#
# Bulk Modulus (GPa) = 54.29383 66.14508 60.21946
# Shear Modulus (GPa) = 19.78697 21.22798 20.50748
#
# Velocity S-wave (km/s) = 3.54692 3.67380 3.61092
# Velocity P-wave (km/s) = 7.16201 7.74927 7.46142
#
# Compressibility (1/GPa) = 0.01841830
#
# Stress axis : x y z
#
# Youngs Moduli (GPa) = 44.11503 44.11503 86.42829
#
# Poissons Ratio (x) = 0.30881 0.52911
# Poissons Ratio (y) = 0.30881 0.52911
# Poissons Ratio (z) = 0.27007 0.27007
#
# Static dielectric constant tensor:
#      x y z
#    x 1.476750 0.000000 0.000000 
#    y 0.000000 1.476750 0.000000 
#    z 0.000000 0.000000 1.534730 
# 
# From -- ./inp_files/7636.got.cif
#   From: 2010.05.17/outbox.cif.g08.bks.cpg/sg180_4_cif.got.tgz:7636.got - 2010.05.20 11:43:55.
