data_PCOD9584306
_publ_section_title
;
Structure prediction by ZEFSAII (Michael W. Deem and Ramdas Pophale) SiO2 
 PCOD9584306
Probable space group: P 64 2 2
;
_chemical_formula_sum "Si O2"
_cell_formula_units_Z 48
_cell_length_a 11.114797
_cell_length_b 11.114797
_cell_length_c 23.629303
_cell_angle_alpha 90.000000
_cell_angle_beta 90.000000
_cell_angle_gamma 120.000000
_cell_volume 2528.043912
_symmetry_space_group_name_H-M "P 64 2 2"
_symmetry_group_IT_number 181
_symmetry_cell_setting 'hexagonal'
loop_
_space_group_symop_operation_xyz
x,y,z
x-y,x,2/3+z
-y,x-y,1/3+z
-x,-y,z
-x+y,-x,2/3+z
y,-x+y,1/3+z
x-y,-y,-z
-x,-x+y,2/3-z
y,x,1/3-z
-y,-x,1/3-z
-x+y,y,-z
x,x-y,2/3-z
loop_
_atom_site_type_symbol
_atom_site_label
_atom_site_fract_x
_atom_site_fract_y
_atom_site_fract_z
Si Si1 0.432993 0.593857 0.897889
Si Si2 0.658947 0.829474 0.833334
Si Si3 0.353506 0.361360 0.083504
Si Si4 0.846385 0.218422 0.487800
Si Si5 0.760950 0.521900 0.000000
O O1 0.500000 0.500000 0.914553
O O2 0.555834 0.746564 0.885069
O O3 0.349249 0.519165 0.840016
O O4 0.327169 0.572615 0.947540
O O5 0.743214 0.749289 0.822071
O O6 0.500000 0.500000 0.095379
O O7 0.374814 0.231914 0.097056
O O8 0.237152 0.347842 0.128059
O O9 0.300586 0.383235 0.023290
#
# Coordination Sequence:
#
# PCOD9584306 Si02
#       5
#    12   6  12  12   6
#     4   9  19  34  54  84 114 153 192 240 297 357
#     4  10  20  35  58  87 122 148 200 244 304 356
#     4  10  20  34  59  85 112 147 199 242 293 356
#     4   9  19  34  58  86 111 150 199 249 287 351
#     4  10  20  34  58  82 116 152 192 244 302 348
#
# _framework density 18.987010000000001
#
# number of rings (size 3 to 8) (size 9 to 14) (size 15 to 20)
#    0.000    2.500    0.000    2.250    7.000    2.000 
#    0.000    0.000    0.000   42.000    0.000    0.000 
#    0.000    0.000    0.000    0.000    0.000    0.000 
#
# Total GULP energy -267401.414094 kJ/mol
# GULP energy per Si atom -5570.862794 kJ/mol
# Density = 1.894379 g / cm^3
# Si number density = 18.987010 Si / 1000 Ang^3
#
#
#
# Elastic Constant Matrix: (Units=GPa)
#
#
# Indices 1 2 3 4 5 6 
#
# 1 120.8044 54.8722 39.0488 0.0000 0.0000 0.0000
# 2 54.8722 120.8044 39.0488 0.0000 0.0000 0.0000
# 3 39.0488 39.0488 71.9757 0.0000 0.0000 0.0000
# 4 0.0000 0.0000 0.0000 18.6639 0.0000 0.0000
# 5 0.0000 0.0000 0.0000 0.0000 18.6639 0.0000
# 6 0.0000 0.0000 0.0000 0.0000 0.0000 32.9661
#
#
#
# Elastic Compliance Matrix: (Units=1/GPa)
#
#
# Indices 1 2 3 4 5 6 
#
# 1 0.011334 -0.003833 -0.004070 0.000000 0.000000 0.000000
# 2 -0.003833 0.011334 -0.004070 0.000000 0.000000 0.000000
# 3 -0.004070 -0.004070 0.018310 0.000000 0.000000 0.000000
# 4 0.000000 0.000000 0.000000 0.053579 0.000000 0.000000
# 5 0.000000 0.000000 0.000000 0.000000 0.053579 0.000000
# 6 0.000000 0.000000 0.000000 0.000000 0.000000 0.030334
#
#
# Mechanical properties :
#
#
# Convention : Reuss Voigt Hill
#
# Bulk Modulus (GPa) = 58.70811 64.39158 61.54984
# Shear Modulus (GPa) = 24.02764 26.09976 25.06370
#
# Velocity S-wave (km/s) = 3.56122 3.71160 3.63718
# Velocity P-wave (km/s) = 6.92076 7.23568 7.07997
#
# Compressibility (1/GPa) = 0.01703342
#
# Stress axis : x y z
#
# Youngs Moduli (GPa) = 88.22777 88.22777 54.61645
#
# Poissons Ratio (x) = 0.33816 0.22228
# Poissons Ratio (y) = 0.33816 0.22228
# Poissons Ratio (z) = 0.35907 0.35907
#
# Static dielectric constant tensor:
#      x y z
#    x 1.700140 0.000000 0.000000 
#    y 0.000000 1.700140 0.000000 
#    z 0.000000 0.000000 1.716100 
# 
# From -- ./inp_files/9923.got.cif
#   From: 2010.05.17/outbox.cif.g08.bks.cpg/sg181_5_cif.got.tgz:9923.got - 2010.05.20 11:51:17.
