data_PCOD9584947
_publ_section_title
;
Structure prediction by ZEFSAII (Michael W. Deem and Ramdas Pophale) SiO2 
 PCOD9584947
Probable space group: P 6 M M
;
_chemical_formula_sum "Si O2"
_cell_formula_units_Z 96
_cell_length_a 23.727806
_cell_length_b 23.727806
_cell_length_c 11.783402
_cell_angle_alpha 90.000000
_cell_angle_beta 90.000000
_cell_angle_gamma 120.000000
_cell_volume 5745.350015
_symmetry_space_group_name_H-M "P 6 M M"
_symmetry_group_IT_number 183
_symmetry_cell_setting 'hexagonal'
loop_
_space_group_symop_operation_xyz
x,y,z
x-y,x,z
-y,x-y,z
-x,-y,z
-x+y,-x,z
y,-x+y,z
-x+y,y,z
x,x-y,z
-y,-x,z
y,x,z
x-y,-y,z
-x,-x+y,z
loop_
_atom_site_type_symbol
_atom_site_label
_atom_site_fract_x
_atom_site_fract_y
_atom_site_fract_z
Si Si1 0.395815 0.320074 0.741910
Si Si2 0.603652 0.074398 0.187183
Si Si3 0.925966 0.258101 0.411168
Si Si4 0.538309 0.833865 0.548345
Si Si5 0.732106 0.803037 0.637114
Si Si6 0.922487 0.618813 0.994982
Si Si7 0.796931 0.462915 0.333839
Si Si8 0.203991 0.281417 0.162649
O O1 0.376775 0.376775 0.741131
O O2 0.452151 0.332268 0.653713
O O3 0.332255 0.255916 0.693352
O O4 0.406060 0.302967 0.869303
O O5 0.537402 0.074804 0.160466
O O6 0.648152 0.086693 0.077922
O O7 0.643676 0.134146 0.272467
O O8 0.579908 0.000000 0.228098
O O9 0.874627 0.276187 0.461475
O O10 0.924501 0.206418 0.502048
O O11 0.913728 0.231471 0.283752
O O12 0.000000 0.318050 0.417356
O O13 0.543382 0.771691 0.588269
O O14 0.476123 0.809096 0.468401
O O15 0.741648 0.870824 0.675497
O O16 0.790720 0.790720 0.664117
O O17 0.902711 0.664850 0.063342
O O18 0.000000 0.664598 0.978514
O O19 0.737964 0.475928 0.303371
O O20 0.778771 0.389386 0.306879
O O21 0.127047 0.254094 0.159967
O O22 0.229909 0.229909 0.153254
#
# Coordination Sequence:
#
# PCOD9584947 Si02
#       8
#    12  12  12  12  12  12  12  12
#     4   9  17  29  45  66  94 124 150 180 224 282
#     4   9  18  33  53  77 103 128 156 194 239 284
#     4   9  16  26  42  65  92 117 141 178 232 291
#     4  10  18  28  45  67  89 115 150 191 231 269
#     4   9  16  26  41  60  84 116 152 191 236 286
#     4   9  18  31  46  67  96 127 154 182 226 284
#     4  10  21  36  53  73  98 131 169 205 240 279
#     4  10  19  29  43  64  90 120 155 197 243 291
#
# _framework density 16.709164999999999
#
# number of rings (size 3 to 8) (size 9 to 14) (size 15 to 20)
#    0.000    2.625    0.000    4.250    0.000    4.500 
#    0.000    0.625    0.000    1.000    0.000    0.000 
#    0.000    8.000    0.000    6.250    0.000    0.000 
#
# Total GULP energy -534584.915715 kJ/mol
# GULP energy per Si atom -5568.592872 kJ/mol
# Density = 1.667113 g / cm^3
# Si number density = 16.709165 Si / 1000 Ang^3
#
#
#
# Elastic Constant Matrix: (Units=GPa)
#
#
# Indices 1 2 3 4 5 6 
#
# 1 52.1633 28.5117 26.4971 0.0000 0.0000 0.0000
# 2 28.5117 52.1633 26.4971 0.0000 0.0000 0.0000
# 3 26.4971 26.4971 85.3937 0.0000 0.0000 0.0000
# 4 0.0000 0.0000 0.0000 8.5130 0.0000 0.0000
# 5 0.0000 0.0000 0.0000 0.0000 8.5130 0.0000
# 6 0.0000 0.0000 0.0000 0.0000 0.0000 11.8258
#
#
#
# Elastic Compliance Matrix: (Units=1/GPa)
#
#
# Indices 1 2 3 4 5 6 
#
# 1 0.028925 -0.013356 -0.004831 0.000000 0.000000 0.000000
# 2 -0.013356 0.028925 -0.004831 0.000000 0.000000 0.000000
# 3 -0.004831 -0.004831 0.014708 0.000000 0.000000 0.000000
# 4 0.000000 0.000000 0.000000 0.117467 0.000000 0.000000
# 5 0.000000 0.000000 0.000000 0.000000 0.117467 0.000000
# 6 0.000000 0.000000 0.000000 0.000000 0.000000 0.084561
#
#
# Mechanical properties :
#
#
# Convention : Reuss Voigt Hill
#
# Bulk Modulus (GPa) = 37.70395 39.19245 38.44820
# Shear Modulus (GPa) = 11.18746 12.98467 12.08606
#
# Velocity S-wave (km/s) = 2.59035 2.79067 2.69238
# Velocity P-wave (km/s) = 5.61786 5.82154 5.72061
#
# Compressibility (1/GPa) = 0.02652242
#
# Stress axis : x y z
#
# Youngs Moduli (GPa) = 34.57269 34.57269 67.98826
#
# Poissons Ratio (x) = 0.46175 0.32844
# Poissons Ratio (y) = 0.46175 0.32844
# Poissons Ratio (z) = 0.16702 0.16702
#
# Static dielectric constant tensor:
#      x y z
#    x 1.581290 0.000000 0.000000 
#    y 0.000000 1.581290 0.000000 
#    z 0.000000 0.000000 1.588770 
# 
# From -- ./inp_files/1977.got.cif
#   From: 2010.05.17/outbox.cif.g08.bks.cpg/sg183_1_cif.got.tgz:1977.got - 2010.05.20 12:02:58.
