data_PCOD9584388
_publ_section_title
;
Structure prediction by ZEFSAII (Michael W. Deem and Ramdas Pophale) SiO2 
 PCOD9584388
Probable space group: P 64 2 2
;
_chemical_formula_sum "Si O2"
_cell_formula_units_Z 84
_cell_length_a 16.150412
_cell_length_b 16.150412
_cell_length_c 15.680328
_cell_angle_alpha 90.000000
_cell_angle_beta 90.000000
_cell_angle_gamma 120.000000
_cell_volume 3542.036125
_symmetry_space_group_name_H-M "P 64 2 2"
_symmetry_group_IT_number 181
_symmetry_cell_setting 'hexagonal'
loop_
_space_group_symop_operation_xyz
x,y,z
x-y,x,2/3+z
-y,x-y,1/3+z
-x,-y,z
-x+y,-x,2/3+z
y,-x+y,1/3+z
x-y,-y,-z
-x,-x+y,2/3-z
y,x,1/3-z
-y,-x,1/3-z
-x+y,y,-z
x,x-y,2/3-z
loop_
_atom_site_type_symbol
_atom_site_label
_atom_site_fract_x
_atom_site_fract_y
_atom_site_fract_z
Si Si1 0.709967 0.354984 0.333334
Si Si2 0.408256 0.899975 0.748546
Si Si3 0.483906 0.214624 0.739588
Si Si4 0.326647 0.937222 0.913547
Si Si5 0.725849 0.784909 0.881420
Si Si6 0.618014 0.236028 0.500000
Si Si7 0.607278 0.747997 0.134193
Si Si8 0.948952 0.672734 0.971485
O O1 0.776267 0.467755 0.348840
O O2 0.647503 0.301096 0.415829
O O3 0.450245 0.832328 0.722474
O O4 0.383666 0.903017 0.848740
O O5 0.324598 0.897999 0.691364
O O6 0.500000 0.000000 0.730546
O O7 0.508044 0.254022 0.833334
O O8 0.372838 0.142229 0.744181
O O9 0.220403 0.843126 0.912967
O O10 0.310017 0.011220 0.855196
O O11 0.375373 0.000000 0.000000
O O12 0.773392 0.886696 0.833334
O O13 0.772888 0.758283 0.959614
O O14 0.673845 0.177305 0.490137
O O15 0.662846 0.779026 0.224393
O O16 0.645301 0.690953 0.077232
#
# Coordination Sequence:
#
# PCOD9584388 Si02
#       8
#     6  12  12  12  12   6  12  12
#     4  12  24  40  54  84 121 172 216 294 349 394
#     4  11  22  41  59  90 121 178 225 274 353 410
#     4  11  22  40  57  86 125 171 234 287 340 407
#     4  11  24  42  63  90 130 172 228 291 343 429
#     4  10  21  40  65  90 125 176 221 273 350 422
#     4  12  26  41  60  90 134 176 238 298 354 421
#     4  11  25  41  66 101 126 173 231 292 359 416
#     4  10  22  40  68  92 130 168 221 292 346 432
#
# _framework density 23.715171999999999
#
# number of rings (size 3 to 8) (size 9 to 14) (size 15 to 20)
#    0.000    1.143    3.571    3.429    2.000    5.429 
#    0.000    0.000    0.000    0.000    0.000    2.000 
#    0.000   13.714    0.000    0.000    0.000    0.000 
#
# Total GULP energy -468858.149370 kJ/mol
# GULP energy per Si atom -5581.644635 kJ/mol
# Density = 2.366120 g / cm^3
# Si number density = 23.715172 Si / 1000 Ang^3
#
#
#
# Elastic Constant Matrix: (Units=GPa)
#
#
# Indices 1 2 3 4 5 6 
#
# 1 89.4302 7.6403 23.5159 0.0000 0.0000 0.0000
# 2 7.6403 89.4302 23.5159 0.0000 0.0000 0.0000
# 3 23.5159 23.5159 170.6662 0.0000 0.0000 0.0000
# 4 0.0000 0.0000 0.0000 36.4894 0.0000 0.0000
# 5 0.0000 0.0000 0.0000 0.0000 36.4894 0.0000
# 6 0.0000 0.0000 0.0000 0.0000 0.0000 40.8950
#
#
#
# Elastic Compliance Matrix: (Units=1/GPa)
#
#
# Indices 1 2 3 4 5 6 
#
# 1 0.011633 -0.000594 -0.001521 0.000000 0.000000 0.000000
# 2 -0.000594 0.011633 -0.001521 0.000000 0.000000 0.000000
# 3 -0.001521 -0.001521 0.006279 0.000000 0.000000 0.000000
# 4 0.000000 0.000000 0.000000 0.027405 0.000000 0.000000
# 5 0.000000 0.000000 0.000000 0.000000 0.027405 0.000000
# 6 0.000000 0.000000 0.000000 0.000000 0.000000 0.024453
#
#
# Mechanical properties :
#
#
# Convention : Reuss Voigt Hill
#
# Bulk Modulus (GPa) = 44.89951 50.98567 47.94259
# Shear Modulus (GPa) = 40.48492 42.43173 41.45833
#
# Velocity S-wave (km/s) = 4.13623 4.23451 4.18566
# Velocity P-wave (km/s) = 6.46414 6.74195 6.60451
#
# Compressibility (1/GPa) = 0.02227196
#
# Stress axis : x y z
#
# Youngs Moduli (GPa) = 85.96537 85.96537 159.27245
#
# Poissons Ratio (x) = 0.05105 0.24226
# Poissons Ratio (y) = 0.05105 0.24226
# Poissons Ratio (z) = 0.13075 0.13075
#
# Static dielectric constant tensor:
#      x y z
#    x 2.014480 0.000000 0.000000 
#    y 0.000000 2.014480 0.000000 
#    z 0.000000 0.000000 2.016010 
# 
# From -- ./inp_files/6525.got.cif
#   From: 2010.05.17/outbox.cif.g08.bks.cpg/sg181_4_cif.got.tgz:6525.got - 2010.05.20 11:51:17.
