data_PCOD9584537
_publ_section_title
;
Structure prediction by ZEFSAII (Michael W. Deem and Ramdas Pophale) SiO2 
 PCOD9584537
Probable space group: P 64 2 2
;
_chemical_formula_sum "Si O2"
_cell_formula_units_Z 60
_cell_length_a 17.664499
_cell_length_b 17.664499
_cell_length_c 10.494403
_cell_angle_alpha 90.000000
_cell_angle_beta 90.000000
_cell_angle_gamma 120.000000
_cell_volume 2835.900691
_symmetry_space_group_name_H-M "P 64 2 2"
_symmetry_group_IT_number 181
_symmetry_cell_setting 'hexagonal'
loop_
_space_group_symop_operation_xyz
x,y,z
x-y,x,2/3+z
-y,x-y,1/3+z
-x,-y,z
-x+y,-x,2/3+z
y,-x+y,1/3+z
x-y,-y,-z
-x,-x+y,2/3-z
y,x,1/3-z
-y,-x,1/3-z
-x+y,y,-z
x,x-y,2/3-z
loop_
_atom_site_type_symbol
_atom_site_label
_atom_site_fract_x
_atom_site_fract_y
_atom_site_fract_z
Si Si1 0.000000 0.131999 0.333334
Si Si2 0.266690 0.415781 0.384139
Si Si3 0.135461 0.067731 0.333334
Si Si4 0.422492 0.170384 0.197085
Si Si5 0.894734 0.446744 0.181648
Si Si6 0.001790 0.756489 0.525723
O O1 0.048304 0.219576 0.418518
O O2 0.072395 0.105912 0.291622
O O3 0.204063 0.408125 0.500000
O O4 0.237153 0.435515 0.249749
O O5 0.359796 0.491659 0.434695
O O6 0.260393 0.321141 0.381553
O O7 0.201223 0.056439 0.243239
O O8 0.405966 0.202983 0.333334
O O9 0.502149 0.151537 0.208106
O O10 0.341203 0.076882 0.151938
O O11 0.872016 0.436008 0.333334
O O12 0.000000 0.500000 0.175376
#
# Coordination Sequence:
#
# PCOD9584537 Si02
#       6
#     6  12   6  12  12  12
#     4  11  24  36  62  97 144 198 258 295 356 416
#     4  12  25  45  76 110 140 189 249 302 365 443
#     4  11  22  40  56  94 152 198 236 310 362 415
#     4  12  27  48  72 109 150 190 241 301 378 451
#     4  11  24  49  78 106 144 188 242 314 373 441
#     4  12  23  42  67 101 144 196 245 301 355 432
#
# _framework density 21.157298999999998
#
# number of rings (size 3 to 8) (size 9 to 14) (size 15 to 20)
#    0.000    0.400    5.000    4.800    0.000    3.200 
#    3.600    1.000    0.000    0.000    0.000    0.000 
#    0.000    0.000    0.000    0.000    0.000    0.000 
#
# Total GULP energy -334139.479355 kJ/mol
# GULP energy per Si atom -5568.991323 kJ/mol
# Density = 2.110914 g / cm^3
# Si number density = 21.157299 Si / 1000 Ang^3
#
#
#
# Elastic Constant Matrix: (Units=GPa)
#
#
# Indices 1 2 3 4 5 6 
#
# 1 126.2366 49.8070 36.4500 0.0000 0.0000 0.0000
# 2 49.8070 126.2366 36.4500 0.0000 0.0000 0.0000
# 3 36.4500 36.4500 94.1271 0.0000 0.0000 0.0000
# 4 0.0000 0.0000 0.0000 31.5713 0.0000 0.0000
# 5 0.0000 0.0000 0.0000 0.0000 31.5713 0.0000
# 6 0.0000 0.0000 0.0000 0.0000 0.0000 38.2148
#
#
#
# Elastic Compliance Matrix: (Units=1/GPa)
#
#
# Indices 1 2 3 4 5 6 
#
# 1 0.009925 -0.003159 -0.002620 0.000000 0.000000 0.000000
# 2 -0.003159 0.009925 -0.002620 0.000000 0.000000 0.000000
# 3 -0.002620 -0.002620 0.012653 0.000000 0.000000 0.000000
# 4 0.000000 0.000000 0.000000 0.031674 0.000000 0.000000
# 5 0.000000 0.000000 0.000000 0.000000 0.031674 0.000000
# 6 0.000000 0.000000 0.000000 0.000000 0.000000 0.026168
#
#
# Mechanical properties :
#
#
# Convention : Reuss Voigt Hill
#
# Bulk Modulus (GPa) = 63.67691 65.77935 64.72813
# Shear Modulus (GPa) = 34.70988 35.19773 34.95381
#
# Velocity S-wave (km/s) = 4.05478 4.08318 4.06900
# Velocity P-wave (km/s) = 7.21692 7.30670 7.26195
#
# Compressibility (1/GPa) = 0.01570428
#
# Stress axis : x y z
#
# Youngs Moduli (GPa) = 100.75970 100.75970 79.03317
#
# Poissons Ratio (x) = 0.31833 0.20705
# Poissons Ratio (y) = 0.31833 0.20705
# Poissons Ratio (z) = 0.26397 0.26397
#
# Static dielectric constant tensor:
#      x y z
#    x 1.667810 0.000000 0.000000 
#    y 0.000000 1.667810 0.000000 
#    z 0.000000 0.000000 1.560870 
# 
# From -- ./inp_files/4896.got.cif
#   From: 2010.05.17/outbox.cif.g08.bks.cpg/sg181_3_cif.got.tgz:4896.got - 2010.05.20 11:51:17.
