data_PCOD9585274
_publ_section_title
;
Structure prediction by ZEFSAII (Michael W. Deem and Ramdas Pophale) SiO2 
 PCOD9585274
Probable space group: P 63 C M
;
_chemical_formula_sum "Si O2"
_cell_formula_units_Z 84
_cell_length_a 17.338906
_cell_length_b 17.338906
_cell_length_c 15.337820
_cell_angle_alpha 90.000000
_cell_angle_beta 90.000000
_cell_angle_gamma 120.000000
_cell_volume 3993.352545
_symmetry_space_group_name_H-M "P 63 C M"
_symmetry_group_IT_number 185
_symmetry_cell_setting 'hexagonal'
loop_
_space_group_symop_operation_xyz
x,y,z
x-y,x,1/2+z
-y,x-y,z
-x,-y,1/2+z
-x+y,-x,z
y,-x+y,1/2+z
-x+y,y,1/2+z
x,x-y,1/2+z
-y,-x,1/2+z
y,x,z
x-y,-y,z
-x,-x+y,z
loop_
_atom_site_type_symbol
_atom_site_label
_atom_site_fract_x
_atom_site_fract_y
_atom_site_fract_z
Si Si1 0.105273 0.464847 0.775330
Si Si2 0.604515 0.801079 0.390867
Si Si3 0.266880 0.374555 0.572014
Si Si4 0.105093 0.510396 0.423315
Si Si5 0.432164 0.891854 0.115366
Si Si6 0.901385 0.099120 0.852621
Si Si7 0.101249 0.896711 0.142082
O O1 0.157281 0.416093 0.806837
O O2 0.114899 0.532746 0.852070
O O3 0.138999 0.523273 0.688084
O O4 0.000000 0.393561 0.766447
O O5 0.596540 0.849540 0.476967
O O6 0.538813 0.696884 0.396756
O O7 0.707278 0.827831 0.387307
O O8 0.322062 0.322062 0.564285
O O9 0.329582 0.463613 0.626976
O O10 0.171380 0.303728 0.610876
O O11 0.133544 0.553608 0.518731
O O12 0.000000 0.439192 0.427969
O O13 0.487408 0.000000 0.120384
O O14 0.900261 0.103325 0.747433
O O15 0.000000 0.171068 0.883525
O O16 0.877124 0.000000 0.876965
O O17 0.000000 0.834458 0.111343
O O18 0.140398 0.000000 0.114909
#
# Coordination Sequence:
#
# PCOD9585274 Si02
#       7
#    12  12  12  12  12  12  12
#     4  10  21  41  67  90 118 160 207 259 323 388
#     4  12  23  37  61  93 126 162 212 268 321 378
#     4  10  20  37  61  88 119 160 212 263 314 372
#     4  10  22  41  62  91 128 163 204 259 322 387
#     4   9  19  39  67  91 118 164 209 254 320 388
#     4  10  21  37  58  90 133 180 223 268 319 377
#     4   9  19  34  55  85 126 171 216 263 314 372
#
# _framework density 21.034956999999999
#
# number of rings (size 3 to 8) (size 9 to 14) (size 15 to 20)
#    0.000    2.000    1.429    2.000    2.000    3.429 
#    0.857    2.857    0.000    1.714    0.000    0.000 
#    0.000    0.000    0.000    0.000    0.000    0.000 
#
# Total GULP energy -469469.586392 kJ/mol
# GULP energy per Si atom -5588.923648 kJ/mol
# Density = 2.098708 g / cm^3
# Si number density = 21.034957 Si / 1000 Ang^3
#
#
#
# Elastic Constant Matrix: (Units=GPa)
#
#
# Indices 1 2 3 4 5 6 
#
# 1 61.0650 31.2744 0.1413 0.0000 0.0000 0.0000
# 2 31.2744 61.0650 0.1413 0.0000 0.0000 0.0000
# 3 0.1413 0.1413 52.0569 0.0000 0.0000 0.0000
# 4 0.0000 0.0000 0.0000 18.1384 0.0000 0.0000
# 5 0.0000 0.0000 0.0000 0.0000 18.1384 0.0000
# 6 0.0000 0.0000 0.0000 0.0000 0.0000 14.8953
#
#
#
# Elastic Compliance Matrix: (Units=1/GPa)
#
#
# Indices 1 2 3 4 5 6 
#
# 1 0.022199 -0.011369 -0.000029 0.000000 0.000000 0.000000
# 2 -0.011369 0.022199 -0.000029 0.000000 0.000000 0.000000
# 3 -0.000029 -0.000029 0.019210 0.000000 0.000000 0.000000
# 4 0.000000 0.000000 0.000000 0.055132 0.000000 0.000000
# 5 0.000000 0.000000 0.000000 0.000000 0.055132 0.000000
# 6 0.000000 0.000000 0.000000 0.000000 0.000000 0.067135
#
#
# Mechanical properties :
#
#
# Convention : Reuss Voigt Hill
#
# Bulk Modulus (GPa) = 24.53883 26.36676 25.45280
# Shear Modulus (GPa) = 18.02158 19.74309 18.88233
#
# Velocity S-wave (km/s) = 2.93020 3.06696 2.99936
# Velocity P-wave (km/s) = 4.81031 5.01035 4.91135
#
# Compressibility (1/GPa) = 0.04075173
#
# Stress axis : x y z
#
# Youngs Moduli (GPa) = 45.04778 45.04778 52.05648
#
# Poissons Ratio (x) = 0.51215 0.00153
# Poissons Ratio (y) = 0.51215 0.00153
# Poissons Ratio (z) = 0.00132 0.00132
#
# Static dielectric constant tensor:
#      x y z
#    x 1.732980 0.000000 0.000000 
#    y 0.000000 1.732980 0.000000 
#    z 0.000000 0.000000 1.767170 
# 
# From -- ./inp_files/1499.got.cif
#   From: 2010.05.17/outbox.cif.g08.bks.cpg/sg185_cif.got.tgz:1499.got - 2010.05.20 12:05:34.
