data_PCOD9585729
_publ_section_title
;
Structure prediction by ZEFSAII (Michael W. Deem and Ramdas Pophale) SiO2 
 PCOD9585729
Probable space group: P -6 M 2
;
_chemical_formula_sum "Si O2"
_cell_formula_units_Z 60
_cell_length_a 12.608813
_cell_length_b 12.608813
_cell_length_c 26.267463
_cell_angle_alpha 90.000000
_cell_angle_beta 90.000000
_cell_angle_gamma 120.000000
_cell_volume 3616.572440
_symmetry_space_group_name_H-M "P -6 M 2"
_symmetry_group_IT_number 187
_symmetry_cell_setting 'hexagonal'
loop_
_space_group_symop_operation_xyz
x,y,z
-x+y,-x,-z
-y,x-y,z
x,y,-z
-x+y,-x,z
-y,x-y,-z
-y,-x,-z
-x+y,y,-z
x,x-y,-z
-x+y,y,z
x,x-y,z
-y,-x,z
loop_
_atom_site_type_symbol
_atom_site_label
_atom_site_fract_x
_atom_site_fract_y
_atom_site_fract_z
Si Si1 0.000399 0.748074 0.000000
Si Si2 0.585604 0.667087 0.900042
Si Si3 0.667143 0.585300 0.500000
Si Si4 0.747442 0.999904 0.600057
Si Si5 0.585501 0.667092 0.700333
Si Si6 0.747642 0.999686 0.199987
O O1 0.019125 0.686074 0.949933
O O2 0.871092 0.742184 0.000000
O O3 0.111049 0.888952 0.000000
O O4 0.555188 0.777594 0.900216
O O5 0.462314 0.537687 0.900230
O O6 0.665761 0.685779 0.849795
O O7 0.537067 0.462934 0.500000
O O8 0.777314 0.554628 0.500000
O O9 0.686196 0.666175 0.449892
O O10 0.879461 0.120540 0.606727
O O11 0.761821 0.880911 0.593879
O O12 0.663991 0.977875 0.649494
O O13 0.555279 0.777640 0.701659
O O14 0.462494 0.537507 0.700863
O O15 0.668504 0.685599 0.749636
O O16 0.777262 0.888631 0.200225
O O17 0.871329 0.128672 0.199192
#
# Coordination Sequence:
#
# PCOD9585729 Si02
#       6
#     6  12   6  12  12  12
#     4  10  20  34  54  78 104 134 168 210 256 302
#     4  10  20  34  54  78 104 134 168 209 254 301
#     4  10  20  34  52  74 102 136 172 208 248 298
#     4  10  20  34  54  78 104 134 168 210 256 302
#     4  10  20  34  53  76 103 135 170 210 254 301
#     4  10  20  34  54  78 104 134 168 210 256 302
#
# _framework density 16.590295000000001
#
# number of rings (size 3 to 8) (size 9 to 14) (size 15 to 20)
#    0.000    2.000    0.000    4.000    0.000    0.000 
#    0.000    8.000    0.000   17.600    0.000    0.000 
#    0.000    0.000    0.000    0.000    0.000    0.000 
#
# Total GULP energy -335048.952965 kJ/mol
# GULP energy per Si atom -5584.149216 kJ/mol
# Density = 1.655253 g / cm^3
# Si number density = 16.590295 Si / 1000 Ang^3
#
#
#
# Elastic Constant Matrix: (Units=GPa)
#
#
# Indices 1 2 3 4 5 6 
#
# 1 149.9428 112.4316 100.0455 0.0000 0.0000 0.0000
# 2 112.4316 149.9428 100.0455 0.0000 0.0000 0.0000
# 3 100.0455 100.0455 184.3292 0.0000 0.0000 0.0000
# 4 0.0000 0.0000 0.0000 11.8941 0.0000 0.0000
# 5 0.0000 0.0000 0.0000 0.0000 11.8941 0.0000
# 6 0.0000 0.0000 0.0000 0.0000 0.0000 18.7556
#
#
#
# Elastic Compliance Matrix: (Units=1/GPa)
#
#
# Indices 1 2 3 4 5 6 
#
# 1 0.016581 -0.010078 -0.003530 0.000000 0.000000 0.000000
# 2 -0.010078 0.016581 -0.003530 0.000000 0.000000 0.000000
# 3 -0.003530 -0.003530 0.009256 0.000000 0.000000 0.000000
# 4 0.000000 0.000000 0.000000 0.084075 0.000000 0.000000
# 5 0.000000 0.000000 0.000000 0.000000 0.084075 0.000000
# 6 0.000000 0.000000 0.000000 0.000000 0.000000 0.053317
#
#
# Mechanical properties :
#
#
# Convention : Reuss Voigt Hill
#
# Bulk Modulus (GPa) = 122.78516 123.25109 123.01812
# Shear Modulus (GPa) = 16.61821 19.95491 18.28656
#
# Velocity S-wave (km/s) = 3.16837 3.47191 3.32361
# Velocity P-wave (km/s) = 9.35712 9.51444 9.43611
#
# Compressibility (1/GPa) = 0.00814431
#
# Stress axis : x y z
#
# Youngs Moduli (GPa) = 60.31046 60.31046 108.03291
#
# Poissons Ratio (x) = 0.60780 0.38131
# Poissons Ratio (y) = 0.60780 0.38131
# Poissons Ratio (z) = 0.21287 0.21287
#
# Static dielectric constant tensor:
#      x y z
#    x 1.522260 0.000000 0.000000 
#    y 0.000000 1.522260 0.000000 
#    z 0.000000 0.000000 1.548150 
# 
# From -- ./inp_files/4168.got.cif
#   From: 2010.05.17/outbox.cif.g08.bks.cpg/sg187_3_cif.got.tgz:4168.got - 2010.05.20 12:09:04.
