data_PCOD9585299
_publ_section_title
;
Structure prediction by ZEFSAII (Michael W. Deem and Ramdas Pophale) SiO2 
 PCOD9585299
Probable space group: P 63 C M
;
_chemical_formula_sum "Si O2"
_cell_formula_units_Z 66
_cell_length_a 15.147628
_cell_length_b 15.147628
_cell_length_c 17.167461
_cell_angle_alpha 90.000000
_cell_angle_beta 90.000000
_cell_angle_gamma 120.000000
_cell_volume 3411.347514
_symmetry_space_group_name_H-M "P 63 C M"
_symmetry_group_IT_number 185
_symmetry_cell_setting 'hexagonal'
loop_
_space_group_symop_operation_xyz
x,y,z
x-y,x,1/2+z
-y,x-y,z
-x,-y,1/2+z
-x+y,-x,z
y,-x+y,1/2+z
-x+y,y,1/2+z
x,x-y,1/2+z
-y,-x,1/2+z
y,x,z
x-y,-y,z
-x,-x+y,z
loop_
_atom_site_type_symbol
_atom_site_label
_atom_site_fract_x
_atom_site_fract_y
_atom_site_fract_z
Si Si1 0.462574 0.882046 0.886180
Si Si2 0.444868 0.187588 0.632944
Si Si3 0.121325 0.593180 0.565856
Si Si4 0.000000 0.739473 0.044805
Si Si5 0.804925 0.559753 0.316122
Si Si6 0.769433 0.880877 0.400871
O O1 0.363996 0.863059 0.838178
O O2 0.501709 0.808238 0.855660
O O3 0.551425 0.000000 0.879978
O O4 0.430336 0.863033 0.976705
O O5 0.537484 0.165535 0.619312
O O6 0.468887 0.288269 0.585188
O O7 0.345314 0.089549 0.600789
O O8 0.436322 0.204944 0.723821
O O9 0.000000 0.541750 0.577615
O O10 0.086968 0.820921 0.982534
O O11 0.862355 0.672415 0.351938
O O12 0.830307 0.830307 0.360677
O O13 0.843938 0.000000 0.414096
#
# Coordination Sequence:
#
# PCOD9585299 Si02
#       6
#    12  12  12   6  12  12
#     4  11  24  42  67  97 133 182 231 273 327 424
#     4  12  25  42  68 104 147 182 226 299 358 416
#     4  11  24  43  70  97 138 188 235 276 341 425
#     4  10  24  44  72  94 142 186 238 290 358 422
#     4  12  25  40  69 102 144 178 227 287 359 408
#     4  10  23  44  73  95 128 186 244 295 346 424
#
# _framework density 19.347193999999998
#
# number of rings (size 3 to 8) (size 9 to 14) (size 15 to 20)
#    0.545    0.364    0.909    6.364    5.091    5.091 
#    0.000    0.000    0.000    0.000    0.000    0.000 
#    0.000    0.000    0.000    0.000    0.000    0.000 
#
# Total GULP energy -367418.696677 kJ/mol
# GULP energy per Si atom -5566.949950 kJ/mol
# Density = 1.930316 g / cm^3
# Si number density = 19.347194 Si / 1000 Ang^3
#
#
#
# Elastic Constant Matrix: (Units=GPa)
#
#
# Indices 1 2 3 4 5 6 
#
# 1 82.0902 41.6115 38.6806 0.0000 0.0000 0.0000
# 2 41.6115 82.0902 38.6806 0.0000 0.0000 0.0000
# 3 38.6806 38.6806 66.4426 0.0000 0.0000 0.0000
# 4 0.0000 0.0000 0.0000 264.5178 0.0000 0.0000
# 5 0.0000 0.0000 0.0000 0.0000 264.5178 0.0000
# 6 0.0000 0.0000 0.0000 0.0000 0.0000 20.2394
#
#
#
# Elastic Compliance Matrix: (Units=1/GPa)
#
#
# Indices 1 2 3 4 5 6 
#
# 1 0.018708 -0.005996 -0.007401 0.000000 0.000000 0.000000
# 2 -0.005996 0.018708 -0.007401 0.000000 0.000000 0.000000
# 3 -0.007401 -0.007401 0.023667 0.000000 0.000000 0.000000
# 4 0.000000 0.000000 0.000000 0.003780 0.000000 0.000000
# 5 0.000000 0.000000 0.000000 0.000000 0.003780 0.000000
# 6 0.000000 0.000000 0.000000 0.000000 0.000000 0.049409
#
#
# Mechanical properties :
#
#
# Convention : Reuss Voigt Hill
#
# Bulk Modulus (GPa) = 51.31015 52.06314 51.68664
# Shear Modulus (GPa) = 30.09433 117.29837 73.69635
#
# Velocity S-wave (km/s) = 3.94825 7.79485 6.17853
# Velocity P-wave (km/s) = 6.88209 10.39141 8.81318
#
# Compressibility (1/GPa) = 0.01948932
#
# Stress axis : x y z
#
# Youngs Moduli (GPa) = 53.45238 53.45238 42.25239
#
# Poissons Ratio (x) = 0.32050 0.31269
# Poissons Ratio (y) = 0.32050 0.31269
# Poissons Ratio (z) = 0.39558 0.39558
#
# Static dielectric constant tensor:
#      x y z
#    x 1.676470 0.000000 0.000000 
#    y 0.000000 1.676470 0.000000 
#    z 0.000000 0.000000 1.658380 
# 
# From -- ./inp_files/1674.got.cif
#   From: 2010.05.17/outbox.cif.g08.bks.cpg/sg185_cif.got.tgz:1674.got - 2010.05.20 12:05:34.
