data_PCOD9585673
_publ_section_title
;
Structure prediction by ZEFSAII (Michael W. Deem and Ramdas Pophale) SiO2 
 PCOD9585673
Probable space group: P -6 M 2
;
_chemical_formula_sum "Si O2"
_cell_formula_units_Z 66
_cell_length_a 12.727231
_cell_length_b 12.727231
_cell_length_c 28.686420
_cell_angle_alpha 90.000000
_cell_angle_beta 90.000000
_cell_angle_gamma 120.000000
_cell_volume 4024.156273
_symmetry_space_group_name_H-M "P -6 M 2"
_symmetry_group_IT_number 187
_symmetry_cell_setting 'hexagonal'
loop_
_space_group_symop_operation_xyz
x,y,z
-x+y,-x,-z
-y,x-y,z
x,y,-z
-x+y,-x,z
-y,x-y,-z
-y,-x,-z
-x+y,y,-z
x,x-y,-z
-x+y,y,z
x,x-y,z
-y,-x,z
loop_
_atom_site_type_symbol
_atom_site_label
_atom_site_fract_x
_atom_site_fract_y
_atom_site_fract_z
Si Si1 0.751084 0.751028 0.946497
Si Si2 0.915518 0.333616 0.139771
Si Si3 0.750687 0.999769 0.770611
Si Si4 0.083630 0.666890 0.680243
Si Si5 0.583355 0.917096 0.500000
Si Si6 0.666046 0.582714 0.590045
O O1 0.747043 0.873522 0.938868
O O2 0.674193 0.651124 0.908140
O O3 0.889191 0.778382 0.941441
O O4 0.713893 0.710732 0.000000
O O5 0.920796 0.460398 0.145062
O O6 0.776827 0.223174 0.138800
O O7 0.979022 0.307084 0.183053
O O8 0.879058 0.120943 0.762577
O O9 0.768562 0.884281 0.776648
O O10 0.662464 0.972788 0.726670
O O11 0.099208 0.549604 0.685642
O O12 0.213138 0.786863 0.671781
O O13 0.994447 0.640932 0.636688
O O14 0.443754 0.887507 0.500000
O O15 0.588967 0.794484 0.500000
O O16 0.645589 0.998220 0.454424
O O17 0.795221 0.590441 0.589078
O O18 0.557246 0.442755 0.588643
#
# Coordination Sequence:
#
# PCOD9585673 Si02
#       6
#    12  12  12  12   6  12
#     4   9  17  30  50  75 100 126 158 199 246 293
#     4  10  20  33  49  70  97 129 164 201 242 288
#     4  10  20  34  53  76 101 129 162 202 248 296
#     4  10  20  34  53  76 103 135 169 205 244 290
#     4  10  20  34  54  78 104 134 168 208 252 300
#     4  10  20  34  53  76 102 132 167 208 252 296
#
# _framework density 16.400953999999999
#
# number of rings (size 3 to 8) (size 9 to 14) (size 15 to 20)
#    0.000    2.182    0.000    3.455    0.000    1.091 
#    0.000    4.545    0.000   17.091    0.000    0.000 
#    0.000    0.000    0.000    0.000    0.000    0.000 
#
# Total GULP energy -368351.070118 kJ/mol
# GULP energy per Si atom -5581.076820 kJ/mol
# Density = 1.636362 g / cm^3
# Si number density = 16.400954 Si / 1000 Ang^3
#
#
#
# Elastic Constant Matrix: (Units=GPa)
#
#
# Indices 1 2 3 4 5 6 
#
# 1 127.4224 89.3912 82.3078 0.0000 0.0002 0.0000
# 2 89.3912 127.4224 82.3078 0.0000 -0.0002 0.0000
# 3 82.3078 82.3078 123.4871 0.0000 0.0000 0.0000
# 4 0.0000 0.0000 0.0000 22.7055 0.0000 -0.0002
# 5 0.0002 -0.0002 0.0000 0.0000 22.7055 0.0000
# 6 0.0000 0.0000 0.0000 -0.0002 0.0000 19.0156
#
#
#
# Elastic Compliance Matrix: (Units=1/GPa)
#
#
# Indices 1 2 3 4 5 6 
#
# 1 0.017816 -0.008478 -0.006224 0.000000 0.000000 0.000000
# 2 -0.008478 0.017816 -0.006224 0.000000 0.000000 0.000000
# 3 -0.006224 -0.006224 0.016395 0.000000 0.000000 0.000000
# 4 0.000000 0.000000 0.000000 0.044042 0.000000 0.000001
# 5 0.000000 0.000000 0.000000 0.000000 0.044042 0.000000
# 6 0.000000 0.000000 0.000000 0.000001 0.000000 0.052588
#
#
# Mechanical properties :
#
#
# Convention : Reuss Voigt Hill
#
# Bulk Modulus (GPa) = 98.28231 98.48283 98.38257
# Shear Modulus (GPa) = 21.01343 21.17366 21.09354
#
# Velocity S-wave (km/s) = 3.58331 3.59695 3.59014
# Velocity P-wave (km/s) = 8.78493 8.79932 8.79213
#
# Compressibility (1/GPa) = 0.01017477
#
# Stress axis : x y z
#
# Youngs Moduli (GPa) = 56.12943 56.12943 60.99497
#
# Poissons Ratio (x) = 0.47588 0.37962
# Poissons Ratio (y) = 0.47588 0.37962
# Poissons Ratio (z) = 0.34934 0.34934
#
# Static dielectric constant tensor:
#      x y z
#    x 1.517480 0.000000 0.000000 
#    y 0.000000 1.517480 0.000000 
#    z 0.000000 0.000000 1.544230 
# 
# From -- ./inp_files/4446.got.cif
#   From: 2010.05.17/outbox.cif.g08.bks.cpg/sg187_3_cif.got.tgz:4446.got - 2010.05.20 12:09:04.
