data_PCOD9585885
_publ_section_title
;
Structure prediction by ZEFSAII (Michael W. Deem and Ramdas Pophale) SiO2 
 PCOD9585885
Probable space group: P -6 C 2
;
_chemical_formula_sum "Si O2"
_cell_formula_units_Z 72
_cell_length_a 24.209801
_cell_length_b 24.209801
_cell_length_c 8.781618
_cell_angle_alpha 90.000000
_cell_angle_beta 90.000000
_cell_angle_gamma 120.000000
_cell_volume 4457.461619
_symmetry_space_group_name_H-M "P -6 C 2"
_symmetry_group_IT_number 188
_symmetry_cell_setting 'hexagonal'
loop_
_space_group_symop_operation_xyz
x,y,z
-x+y,-x,1/2-z
-y,x-y,z
x,y,1/2-z
-x+y,-x,z
-y,x-y,1/2-z
-y,-x,-z
-x+y,y,-z
x,x-y,-z
-x+y,y,1/2+z
x,x-y,1/2+z
-y,-x,1/2+z
loop_
_atom_site_type_symbol
_atom_site_label
_atom_site_fract_x
_atom_site_fract_y
_atom_site_fract_z
Si Si1 0.544621 0.210427 0.066263
Si Si2 0.253866 0.390439 0.433110
Si Si3 0.860985 0.601224 0.933603
Si Si4 0.446278 0.002140 0.577263
Si Si5 0.368915 0.848339 0.579684
Si Si6 0.670767 0.000292 0.570756
O O1 0.549084 0.214137 0.250000
O O2 0.471525 0.158104 0.023166
O O3 0.598688 0.197375 0.000000
O O4 0.555251 0.277626 0.000000
O O5 0.254224 0.392555 0.250000
O O6 0.185467 0.370934 0.500000
O O7 0.304411 0.462668 0.490555
O O8 0.280280 0.344170 0.484874
O O9 0.859985 0.602019 0.750000
O O10 0.930721 0.657357 0.982171
O O11 0.805553 0.611106 0.000000
O O12 0.448306 0.025678 0.750000
O O13 0.514461 0.028922 0.500000
O O14 0.414148 0.925230 0.590541
O O15 0.398900 0.009279 0.464423
O O16 0.353844 0.821931 0.750000
O O17 0.411836 0.823671 0.500000
O O18 0.676127 0.991845 0.750000
#
# Coordination Sequence:
#
# PCOD9585885 Si02
#       6
#    12  12  12  12  12  12
#     4  10  19  32  47  65  88 118 156 199 245 291
#     4  10  20  33  49  72  97 124 155 190 233 282
#     4   9  20  35  50  67  89 119 157 196 237 282
#     4   9  16  26  40  61  87 116 148 183 222 266
#     4   8  15  26  41  61  85 112 145 178 214 258
#     4  10  19  32  48  68  93 121 152 190 234 283
#
# _framework density 16.152691999999998
#
# number of rings (size 3 to 8) (size 9 to 14) (size 15 to 20)
#    0.000    2.667    0.000    3.167    0.000    7.333 
#    0.000    1.667    0.000    0.333    0.000    0.000 
#    0.000    0.000    0.000    0.500    0.000    8.000 
#
# Total GULP energy -400956.894213 kJ/mol
# GULP energy per Si atom -5568.845753 kJ/mol
# Density = 1.611593 g / cm^3
# Si number density = 16.152692 Si / 1000 Ang^3
#
#
#
# Elastic Constant Matrix: (Units=GPa)
#
#
# Indices 1 2 3 4 5 6 
#
# 1 73.3305 56.2599 22.0755 -0.0001 0.0000 0.0000
# 2 56.2599 73.3305 22.0755 0.0001 0.0000 0.0000
# 3 22.0755 22.0755 35.7076 0.0000 0.0000 0.0000
# 4 -0.0001 0.0001 0.0000 15.2444 0.0000 0.0000
# 5 0.0000 0.0000 0.0000 0.0000 15.2444 -0.0001
# 6 0.0000 0.0000 0.0000 0.0000 -0.0001 8.5353
#
#
#
# Elastic Compliance Matrix: (Units=1/GPa)
#
#
# Indices 1 2 3 4 5 6 
#
# 1 0.034178 -0.024402 -0.006044 0.000000 0.000000 0.000000
# 2 -0.024402 0.034178 -0.006044 0.000000 0.000000 0.000000
# 3 -0.006044 -0.006044 0.035478 0.000000 0.000000 0.000000
# 4 0.000000 0.000000 0.000000 0.065598 0.000000 0.000000
# 5 0.000000 0.000000 0.000000 0.000000 0.065598 0.000001
# 6 0.000000 0.000000 0.000000 0.000000 0.000001 0.117160
#
#
# Mechanical properties :
#
#
# Convention : Reuss Voigt Hill
#
# Bulk Modulus (GPa) = 32.40987 42.57674 37.49330
# Shear Modulus (GPa) = 11.48227 13.26867 12.37547
#
# Velocity S-wave (km/s) = 2.66909 2.86921 2.77095
# Velocity P-wave (km/s) = 5.44123 6.11495 5.78790
#
# Compressibility (1/GPa) = 0.03085480
#
# Stress axis : x y z
#
# Youngs Moduli (GPa) = 29.25864 29.25864 28.18656
#
# Poissons Ratio (x) = 0.71398 0.17035
# Poissons Ratio (y) = 0.71398 0.17035
# Poissons Ratio (z) = 0.17683 0.17683
#
# Static dielectric constant tensor:
#      x y z
#    x 1.559890 0.000000 0.000000 
#    y 0.000000 1.559890 0.000000 
#    z 0.000000 0.000000 1.569740 
# 
# From -- ./inp_files/1029.got.cif
#   From: 2010.05.17/outbox.cif.g08.bks.cpg/sg188_1_cif.got.tgz:1029.got - 2010.05.20 12:11:46.
