data_PCOD9585154
_publ_section_title
;
Structure prediction by ZEFSAII (Michael W. Deem and Ramdas Pophale) SiO2 
 PCOD9585154
Probable space group: P 6 C C
;
_chemical_formula_sum "Si O2"
_cell_formula_units_Z 84
_cell_length_a 17.964442
_cell_length_b 17.964442
_cell_length_c 13.774278
_cell_angle_alpha 90.000000
_cell_angle_beta 90.000000
_cell_angle_gamma 120.000000
_cell_volume 3849.700465
_symmetry_space_group_name_H-M "P 6 C C"
_symmetry_group_IT_number 184
_symmetry_cell_setting 'hexagonal'
loop_
_space_group_symop_operation_xyz
x,y,z
x-y,x,z
-y,x-y,z
-x,-y,z
-x+y,-x,z
y,-x+y,z
-x+y,y,1/2+z
x,x-y,1/2+z
-y,-x,1/2+z
y,x,1/2+z
x-y,-y,1/2+z
-x,-x+y,1/2+z
loop_
_atom_site_type_symbol
_atom_site_label
_atom_site_fract_x
_atom_site_fract_y
_atom_site_fract_z
Si Si1 0.238488 0.325017 0.047600
Si Si2 0.721575 0.964263 0.717361
Si Si3 0.264533 0.810594 0.130451
Si Si4 0.119378 0.916350 0.387251
Si Si5 0.826657 0.341669 0.427959
Si Si6 0.631335 0.004969 0.380319
Si Si7 0.483408 0.678418 0.332995
O O1 0.227201 0.258283 0.132208
O O2 0.244968 0.411029 0.092726
O O3 0.162704 0.277826 0.968274
O O4 0.322890 0.348440 0.984889
O O5 0.631855 0.895005 0.668566
O O6 0.760344 0.914765 0.778750
O O7 0.700210 0.012677 0.802495
O O8 0.296761 0.778667 0.221600
O O9 0.329322 0.827129 0.042645
O O10 0.017807 0.862595 0.400058
O O11 0.785789 0.396356 0.385973
O O12 0.769076 0.245632 0.387350
O O13 0.922824 0.383724 0.388645
O O14 0.638699 0.093250 0.345479
#
# Coordination Sequence:
#
# PCOD9585154 Si02
#       7
#    12  12  12  12  12  12  12
#     4  11  20  39  69 100 129 179 246 307 351 425
#     4  10  21  38  65  98 130 177 235 305 356 416
#     4  11  23  41  69  99 133 178 233 283 363 421
#     4  11  24  38  60  93 144 194 245 304 373 439
#     4  12  24  46  70  98 149 184 229 295 353 447
#     4  10  22  41  69  99 137 177 237 299 352 423
#     4  11  26  45  67 106 140 188 232 288 364 435
#
# _framework density 21.819880000000001
#
# number of rings (size 3 to 8) (size 9 to 14) (size 15 to 20)
#    0.000    1.143    2.857    3.429    2.000    1.143 
#    2.571    1.429    0.000    1.714    0.000    0.000 
#    0.000    0.000    0.000    0.000    0.000    0.000 
#
# Total GULP energy -469227.449626 kJ/mol
# GULP energy per Si atom -5586.041067 kJ/mol
# Density = 2.177022 g / cm^3
# Si number density = 21.819880 Si / 1000 Ang^3
#
#
#
# Elastic Constant Matrix: (Units=GPa)
#
#
# Indices 1 2 3 4 5 6 
#
# 1 84.1279 18.6382 37.2034 0.0000 0.0000 0.0000
# 2 18.6382 84.1279 37.2034 0.0000 0.0000 0.0000
# 3 37.2034 37.2034 131.4509 0.0000 0.0000 0.0000
# 4 0.0000 0.0000 0.0000 24.8222 0.0000 0.0000
# 5 0.0000 0.0000 0.0000 0.0000 24.8222 0.0000
# 6 0.0000 0.0000 0.0000 0.0000 0.0000 32.7449
#
#
#
# Elastic Compliance Matrix: (Units=1/GPa)
#
#
# Indices 1 2 3 4 5 6 
#
# 1 0.013754 -0.001515 -0.003464 0.000000 0.000000 0.000000
# 2 -0.001515 0.013754 -0.003464 0.000000 0.000000 0.000000
# 3 -0.003464 -0.003464 0.009568 0.000000 0.000000 0.000000
# 4 0.000000 0.000000 0.000000 0.040287 0.000000 0.000000
# 5 0.000000 0.000000 0.000000 0.000000 0.040287 0.000000
# 6 0.000000 0.000000 0.000000 0.000000 0.000000 0.030539
#
#
# Mechanical properties :
#
#
# Convention : Reuss Voigt Hill
#
# Bulk Modulus (GPa) = 49.52869 53.97741 51.75305
# Shear Modulus (GPa) = 29.10276 30.25528 29.67902
#
# Velocity S-wave (km/s) = 3.65605 3.72774 3.69207
# Velocity P-wave (km/s) = 6.36949 6.58175 6.47649
#
# Compressibility (1/GPa) = 0.02019032
#
# Stress axis : x y z
#
# Youngs Moduli (GPa) = 72.70514 72.70514 104.51416
#
# Poissons Ratio (x) = 0.11018 0.36202
# Poissons Ratio (y) = 0.11018 0.36202
# Poissons Ratio (z) = 0.25184 0.25184
#
# Static dielectric constant tensor:
#      x y z
#    x 1.809370 0.000000 0.000000 
#    y 0.000000 1.809370 0.000000 
#    z 0.000000 0.000000 1.815480 
# 
# From -- ./inp_files/655.got.cif
#   From: 2010.05.17/outbox.cif.g08.bks.cpg/sg184_cif.got.tgz:655.got - 2010.05.20 12:04:40.
