data_PCOD9585925
_publ_section_title
;
Structure prediction by ZEFSAII (Michael W. Deem and Ramdas Pophale) SiO2 
 PCOD9585925
Probable space group: P -6 C 2
;
_chemical_formula_sum "Si O2"
_cell_formula_units_Z 90
_cell_length_a 23.050481
_cell_length_b 23.050481
_cell_length_c 14.167836
_cell_angle_alpha 90.000000
_cell_angle_beta 90.000000
_cell_angle_gamma 120.000000
_cell_volume 6519.197488
_symmetry_space_group_name_H-M "P -6 C 2"
_symmetry_group_IT_number 188
_symmetry_cell_setting 'hexagonal'
loop_
_space_group_symop_operation_xyz
x,y,z
-x+y,-x,1/2-z
-y,x-y,z
x,y,1/2-z
-x+y,-x,z
-y,x-y,1/2-z
-y,-x,-z
-x+y,y,-z
x,x-y,-z
-x+y,y,1/2+z
x,x-y,1/2+z
-y,-x,1/2+z
loop_
_atom_site_type_symbol
_atom_site_label
_atom_site_fract_x
_atom_site_fract_y
_atom_site_fract_z
Si Si1 0.487427 0.786560 0.140022
Si Si2 0.602665 0.603135 0.357877
Si Si3 0.621345 0.171995 0.138235
Si Si4 0.472393 0.319153 0.854954
Si Si5 0.186038 0.552589 0.359862
Si Si6 0.514952 0.257476 0.000000
Si Si7 0.473071 0.454803 0.361786
Si Si8 0.093550 0.641916 0.490617
O O1 0.506972 0.802738 0.250000
O O2 0.417458 0.786319 0.127341
O O3 0.470543 0.711009 0.123117
O O4 0.540540 0.844621 0.071917
O O5 0.600308 0.623251 0.250000
O O6 0.659236 0.582832 0.365987
O O7 0.536762 0.529352 0.374097
O O8 0.606742 0.655746 0.434837
O O9 0.641606 0.183671 0.250000
O O10 0.548670 0.166801 0.134063
O O11 0.676051 0.228387 0.068070
O O12 0.600392 0.095057 0.111094
O O13 0.468078 0.293368 0.750000
O O14 0.467508 0.268559 0.931344
O O15 0.164106 0.537776 0.250000
O O16 0.128412 0.512798 0.434904
O O17 0.458431 0.446833 0.250000
O O18 0.412542 0.451725 0.420034
#
# Coordination Sequence:
#
# PCOD9585925 Si02
#       8
#    12  12  12  12  12   6  12  12
#     4  10  20  31  40  51  71  98 123 145 174 215
#     4   9  17  29  43  56  71  89 108 138 179 215
#     4   9  19  33  43  54  74  95 115 140 172 211
#     4   9  19  33  43  54  74  95 115 140 172 211
#     4  10  20  31  40  51  71  98 123 145 174 215
#     4  12  18  26  44  58  68  90 118 138 162 200
#     4   9  17  29  43  56  71  89 108 138 179 215
#     4  12  19  25  41  61  72  82 111 151 180 210
#
# _framework density 13.80538
#
# number of rings (size 3 to 8) (size 9 to 14) (size 15 to 20)
#    0.000    2.133    0.000    7.067    0.000    5.333 
#    3.200    1.333    0.000    0.000    0.000    0.000 
#    0.000    0.000    0.000    0.000    0.000    0.000 
#
# Total GULP energy -501391.427278 kJ/mol
# GULP energy per Si atom -5571.015859 kJ/mol
# Density = 1.377396 g / cm^3
# Si number density = 13.805380 Si / 1000 Ang^3
#
#
#
# Elastic Constant Matrix: (Units=GPa)
#
#
# Indices 1 2 3 4 5 6 
#
# 1 33.9577 20.4418 30.4602 0.0000 0.0000 0.0000
# 2 20.4418 33.9577 30.4602 0.0000 0.0000 0.0000
# 3 30.4602 30.4602 75.9224 0.0000 0.0000 0.0000
# 4 0.0000 0.0000 0.0000 24.0659 0.0000 0.0000
# 5 0.0000 0.0000 0.0000 0.0000 24.0659 0.0000
# 6 0.0000 0.0000 0.0000 0.0000 0.0000 6.7580
#
#
#
# Elastic Compliance Matrix: (Units=1/GPa)
#
#
# Indices 1 2 3 4 5 6 
#
# 1 0.053683 -0.020303 -0.013392 0.000000 0.000000 0.000000
# 2 -0.020303 0.053683 -0.013392 0.000000 0.000000 0.000000
# 3 -0.013392 -0.013392 0.023917 0.000000 0.000000 0.000000
# 4 0.000000 0.000000 0.000000 0.041553 0.000000 0.000000
# 5 0.000000 0.000000 0.000000 0.000000 0.041553 0.000000
# 6 0.000000 0.000000 0.000000 0.000000 0.000000 0.147973
#
#
# Mechanical properties :
#
#
# Convention : Reuss Voigt Hill
#
# Bulk Modulus (GPa) = 26.94784 34.06246 30.50515
# Shear Modulus (GPa) = 10.66310 15.14299 12.90305
#
# Velocity S-wave (km/s) = 2.78220 3.31553 3.06050
# Velocity P-wave (km/s) = 5.46654 6.27566 5.88502
#
# Compressibility (1/GPa) = 0.03710873
#
# Stress axis : x y z
#
# Youngs Moduli (GPa) = 18.62778 18.62778 41.81084
#
# Poissons Ratio (x) = 0.37820 0.55994
# Poissons Ratio (y) = 0.37820 0.55994
# Poissons Ratio (z) = 0.24947 0.24947
#
# Static dielectric constant tensor:
#      x y z
#    x 1.463650 0.000000 0.000000 
#    y 0.000000 1.463650 0.000000 
#    z 0.000000 0.000000 1.526770 
# 
# From -- ./inp_files/2712.got.cif
#   From: 2010.05.17/outbox.cif.g08.bks.cpg/sg188_2_cif.got.tgz:2712.got - 2010.05.20 12:11:46.
