data_PCOD9585577
_publ_section_title
;
Structure prediction by ZEFSAII (Michael W. Deem and Ramdas Pophale) SiO2 
 PCOD9585577
Probable space group: P -6 M 2
;
_chemical_formula_sum "Si O2"
_cell_formula_units_Z 72
_cell_length_a 24.884311
_cell_length_b 24.884311
_cell_length_c 8.582158
_cell_angle_alpha 90.000000
_cell_angle_beta 90.000000
_cell_angle_gamma 120.000000
_cell_volume 4602.336600
_symmetry_space_group_name_H-M "P -6 M 2"
_symmetry_group_IT_number 187
_symmetry_cell_setting 'hexagonal'
loop_
_space_group_symop_operation_xyz
x,y,z
-x+y,-x,-z
-y,x-y,z
x,y,-z
-x+y,-x,z
-y,x-y,-z
-y,-x,-z
-x+y,y,-z
x,x-y,-z
-x+y,y,z
x,x-y,z
-y,-x,z
loop_
_atom_site_type_symbol
_atom_site_label
_atom_site_fract_x
_atom_site_fract_y
_atom_site_fract_z
Si Si1 0.063186 0.471566 0.686239
Si Si2 0.227516 0.888854 0.314642
Si Si3 0.404212 0.264051 0.688328
Si Si4 0.521938 0.702108 0.814362
Si Si5 0.668365 0.003419 0.815267
Si Si6 0.788173 0.453826 0.310242
O O1 0.058430 0.465416 0.500000
O O2 0.043436 0.521718 0.735089
O O3 0.135238 0.498613 0.734356
O O4 0.022656 0.402639 0.756407
O O5 0.237142 0.887173 0.500000
O O6 0.154089 0.845912 0.284639
O O7 0.259652 0.854637 0.228200
O O8 0.266987 0.958740 0.256843
O O9 0.401440 0.266597 0.500000
O O10 0.389429 0.194715 0.729557
O O11 0.361604 0.288025 0.761733
O O12 0.475691 0.310355 0.737014
O O13 0.496349 0.748175 0.765299
O O14 0.514362 0.693634 0.000000
O O15 0.666647 0.998031 0.000000
O O16 0.789138 0.453556 0.500000
O O17 0.719002 0.438004 0.265269
O O18 0.802862 0.401431 0.254584
#
# Coordination Sequence:
#
# PCOD9585577 Si02
#       6
#    12  12  12  12  12  12
#     4  10  20  32  46  64  86 114 149 189 231 275
#     4   9  16  27  45  67  89 112 138 168 202 245
#     4   9  18  32  47  63  87 120 156 191 227 273
#     4   9  16  26  42  63  85 109 136 168 210 260
#     4  11  21  31  46  66  90 119 148 183 226 273
#     4   8  13  22  39  62  83 103 134 183 240 289
#
# _framework density 15.644226
#
# number of rings (size 3 to 8) (size 9 to 14) (size 15 to 20)
#    0.000    2.667    0.000    6.167    0.000    5.000 
#    0.000    1.667    0.000    0.333    0.000    0.000 
#    0.000    1.333    0.000    0.500    0.000    9.667 
#
# Total GULP energy -400879.758853 kJ/mol
# GULP energy per Si atom -5567.774429 kJ/mol
# Density = 1.560862 g / cm^3
# Si number density = 15.644226 Si / 1000 Ang^3
#
#
#
# Elastic Constant Matrix: (Units=GPa)
#
#
# Indices 1 2 3 4 5 6 
#
# 1 81.1384 58.2024 21.8658 0.0000 0.0007 0.0000
# 2 58.2024 81.1384 21.8658 0.0000 -0.0007 0.0000
# 3 21.8658 21.8658 35.5968 0.0000 0.0000 0.0000
# 4 0.0000 0.0000 0.0000 61.6612 0.0000 -0.0007
# 5 0.0007 -0.0007 0.0000 0.0000 61.6612 0.0000
# 6 0.0000 0.0000 0.0000 -0.0007 0.0000 11.4680
#
#
#
# Elastic Compliance Matrix: (Units=1/GPa)
#
#
# Indices 1 2 3 4 5 6 
#
# 1 0.026245 -0.017354 -0.005461 0.000000 0.000000 0.000000
# 2 -0.017354 0.026245 -0.005461 0.000000 0.000000 0.000000
# 3 -0.005461 -0.005461 0.034802 0.000000 0.000000 0.000000
# 4 0.000000 0.000000 0.000000 0.016218 0.000000 0.000001
# 5 0.000000 0.000000 0.000000 0.000000 0.016218 0.000000
# 6 0.000000 0.000000 0.000000 0.000001 0.000000 0.087199
#
#
# Mechanical properties :
#
#
# Convention : Reuss Voigt Hill
#
# Bulk Modulus (GPa) = 32.53288 44.63795 38.58541
# Shear Modulus (GPa) = 18.26645 33.35405 25.81025
#
# Velocity S-wave (km/s) = 3.42075 4.62241 4.06621
# Velocity P-wave (km/s) = 6.03677 7.55539 6.83837
#
# Compressibility (1/GPa) = 0.03073813
#
# Stress axis : x y z
#
# Youngs Moduli (GPa) = 38.10237 38.10237 28.73429
#
# Poissons Ratio (x) = 0.66125 0.15692
# Poissons Ratio (y) = 0.66125 0.15692
# Poissons Ratio (z) = 0.20808 0.20808
#
# Static dielectric constant tensor:
#      x y z
#    x 1.536850 0.000000 0.000000 
#    y 0.000000 1.536850 0.000000 
#    z 0.000000 0.000000 1.525280 
# 
# From -- ./inp_files/980.got.cif
#   From: 2010.05.17/outbox.cif.g08.bks.cpg/sg187_1_cif.got.tgz:980.got - 2010.05.20 12:09:04.
