data_PCOD9585120
_publ_section_title
;
Structure prediction by ZEFSAII (Michael W. Deem and Ramdas Pophale) SiO2 
 PCOD9585120
Probable space group: P 6 C C
;
_chemical_formula_sum "Si O2"
_cell_formula_units_Z 80
_cell_length_a 18.019084
_cell_length_b 18.019084
_cell_length_c 17.880473
_cell_angle_alpha 90.000000
_cell_angle_beta 90.000000
_cell_angle_gamma 120.000000
_cell_volume 5027.765975
_symmetry_space_group_name_H-M "P 6 C C"
_symmetry_group_IT_number 184
_symmetry_cell_setting 'hexagonal'
loop_
_space_group_symop_operation_xyz
x,y,z
x-y,x,z
-y,x-y,z
-x,-y,z
-x+y,-x,z
y,-x+y,z
-x+y,y,1/2+z
x,x-y,1/2+z
-y,-x,1/2+z
y,x,1/2+z
x-y,-y,1/2+z
-x,-x+y,1/2+z
loop_
_atom_site_type_symbol
_atom_site_label
_atom_site_fract_x
_atom_site_fract_y
_atom_site_fract_z
Si Si1 0.910698 0.664995 0.468670
Si Si2 0.951788 0.808555 0.353587
Si Si3 0.533219 0.339751 0.066809
Si Si4 0.856768 0.808555 0.674895
Si Si5 0.335006 0.089301 0.559812
Si Si6 0.660251 0.193469 0.461664
Si Si7 0.666668 0.333334 0.854137
Si Si8 0.333333 0.666667 0.674335
O O1 0.929778 0.722496 0.395535
O O2 0.835483 0.670967 0.514240
O O3 0.872660 0.565725 0.447861
O O4 0.999999 0.704299 0.514242
O O5 0.882960 0.836592 0.374849
O O6 0.949244 0.798585 0.264241
O O7 0.434276 0.306938 0.080616
O O8 0.591442 0.347623 0.138495
O O9 0.537669 0.268835 0.014237
O O10 0.576660 0.423340 0.014236
O O11 0.836592 0.882959 0.653633
O O12 0.792718 0.722494 0.632948
O O13 0.652379 0.243821 0.389978
O O14 0.666668 0.333334 0.764236
#
# Coordination Sequence:
#
# PCOD9585120 Si02
#       8
#    12  12  12  12  12  12   4   4
#     4  11  20  32  52  76 101 134 176 218 257 302
#     4  10  20  34  50  71 103 141 177 215 263 313
#     4   8  17  33  51  75 103 133 168 207 256 308
#     4  10  20  34  50  71 103 141 177 215 263 313
#     4  11  20  32  52  76 101 134 176 218 257 302
#     4   8  17  33  51  75 103 133 168 207 256 308
#     4   9  16  32  58  81 103 131 172 213 250 311
#     4   9  16  32  58  81 103 131 172 213 250 311
#
# _framework density 15.91164
#
# number of rings (size 3 to 8) (size 9 to 14) (size 15 to 20)
#    0.000    2.400    3.000    1.500    0.000    3.000 
#    0.000    0.000    0.000    0.000    0.000    8.400 
#    0.000    0.000    0.000    0.000    0.000    0.000 
#
# Total GULP energy -445637.412885 kJ/mol
# GULP energy per Si atom -5570.467661 kJ/mol
# Density = 1.587542 g / cm^3
# Si number density = 15.911640 Si / 1000 Ang^3
#
#
#
# Elastic Constant Matrix: (Units=GPa)
#
#
# Indices 1 2 3 4 5 6 
#
# 1 113.9144 69.4451 47.0038 0.0000 0.0000 0.0000
# 2 69.4451 113.9140 47.0037 0.0000 0.0000 0.0000
# 3 47.0038 47.0037 69.8522 0.0001 0.0000 0.0000
# 4 0.0000 0.0000 0.0001 22.2424 0.0000 0.0000
# 5 0.0000 0.0000 0.0000 0.0000 22.2426 0.0000
# 6 0.0000 0.0000 0.0000 0.0000 0.0000 22.2345
#
#
#
# Elastic Compliance Matrix: (Units=1/GPa)
#
#
# Indices 1 2 3 4 5 6 
#
# 1 0.015407 -0.007081 -0.005603 0.000000 0.000000 0.000000
# 2 -0.007081 0.015407 -0.005603 0.000000 0.000000 0.000000
# 3 -0.005603 -0.005603 0.021856 0.000000 0.000000 0.000000
# 4 0.000000 0.000000 0.000000 0.044959 0.000000 0.000000
# 5 0.000000 0.000000 0.000000 0.000000 0.044959 0.000000
# 6 0.000000 0.000000 0.000000 0.000000 0.000000 0.044975
#
#
# Mechanical properties :
#
#
# Convention : Reuss Voigt Hill
#
# Bulk Modulus (GPa) = 62.12087 69.39841 65.75964
# Shear Modulus (GPa) = 21.78636 22.29244 22.03940
#
# Velocity S-wave (km/s) = 3.70430 3.74707 3.72575
# Velocity P-wave (km/s) = 7.57771 7.90128 7.74119
#
# Compressibility (1/GPa) = 0.01609765
#
# Stress axis : x y z
#
# Youngs Moduli (GPa) = 64.90608 64.90591 45.75356
#
# Poissons Ratio (x) = 0.45957 0.25635
# Poissons Ratio (y) = 0.45957 0.25635
# Poissons Ratio (z) = 0.36366 0.36365
#
# Static dielectric constant tensor:
#      x y z
#    x 1.536530 0.000000 0.000000 
#    y 0.000000 1.536530 0.000000 
#    z 0.000000 0.000000 1.512200 
# 
# From -- ./inp_files/1148.got.cif
#   From: 2010.05.17/outbox.cif.g08.bks.cpg/sg184_cif.got.tgz:1148.got - 2010.05.20 12:04:40.
