data_PCOD9585088
_publ_section_title
;
Structure prediction by ZEFSAII (Michael W. Deem and Ramdas Pophale) SiO2 
 PCOD9585088
Probable space group: P 6 M M
;
_chemical_formula_sum "Si O2"
_cell_formula_units_Z 96
_cell_length_a 18.000000
_cell_length_b 18.000000
_cell_length_c 21.000000
_cell_angle_alpha 90.000000
_cell_angle_beta 90.000000
_cell_angle_gamma 120.000000
_cell_volume 5892.436847
_symmetry_space_group_name_H-M "P 6 M M"
_symmetry_group_IT_number 183
_symmetry_cell_setting 'hexagonal'
loop_
_space_group_symop_operation_xyz
x,y,z
x-y,x,z
-y,x-y,z
-x,-y,z
-x+y,-x,z
y,-x+y,z
-x+y,y,z
x,x-y,z
-y,-x,z
y,x,z
x-y,-y,z
-x,-x+y,z
loop_
_atom_site_type_symbol
_atom_site_label
_atom_site_fract_x
_atom_site_fract_y
_atom_site_fract_z
Si Si1 0.636194 0.734747 0.785180
Si Si2 0.531484 0.896255 0.905082
Si Si3 0.896272 0.531583 0.287478
Si Si4 0.734411 0.634902 0.169535
Si Si5 0.494569 0.162807 0.672259
Si Si6 0.533184 0.636037 0.530702
Si Si7 0.898291 0.263845 0.408508
Si Si8 0.900512 0.634831 0.023079
O O1 0.670830 0.835415 0.781429
O O2 0.707274 0.707274 0.793592
O O3 0.570898 0.696761 0.844694
O O4 0.581500 0.691268 0.721621
O O5 0.430750 0.861500 0.900220
O O6 0.578549 0.000000 0.904201
O O7 0.560423 0.874421 0.971345
O O8 0.861712 0.430856 0.292322
O O9 0.874166 0.560521 0.221328
O O10 0.874957 0.571372 0.348064
O O11 0.000000 0.578466 0.288036
O O12 0.835317 0.670634 0.176477
O O13 0.704337 0.704337 0.180754
O O14 0.711028 0.604598 0.096317
O O15 0.572393 0.144786 0.681878
O O16 0.524182 0.262091 0.683631
O O17 0.465265 0.141167 0.599034
O O18 0.434719 0.565282 0.515501
O O19 0.583656 0.583656 0.537899
O O20 0.578260 0.699786 0.472532
O O21 0.837918 0.162083 0.406816
O O22 0.000000 0.299552 0.406473
O O23 0.835172 0.670344 0.015979
O O24 0.000000 0.704378 0.011920
#
# Coordination Sequence:
#
# PCOD9585088 Si02
#       8
#    12  12  12  12  12  12  12  12
#     4  10  20  33  50  71  94 121 154 192 231 271
#     4   9  17  29  46  68  91 115 146 183 222 266
#     4   9  17  29  46  67  88 111 142 181 224 270
#     4   9  17  29  46  68  93 122 157 195 233 273
#     4  10  19  30  45  67  96 127 157 189 227 271
#     4   9  17  29  46  67  90 119 155 192 229 271
#     4  10  19  31  48  69  93 121 155 193 230 269
#     4   9  17  29  46  68  93 122 157 196 235 274
#
# _framework density 16.292071
#
# number of rings (size 3 to 8) (size 9 to 14) (size 15 to 20)
#    0.000    2.625    0.000    2.375    0.000    3.250 
#    0.000    2.500    0.000    8.500    0.000    1.750 
#    0.000    6.000    0.000    4.250    0.000    0.000 
#
# Total GULP energy -534608.549837 kJ/mol
# GULP energy per Si atom -5568.839061 kJ/mol
# Density = 1.625499 g / cm^3
# Si number density = 16.292071 Si / 1000 Ang^3
#
#
#
# Elastic Constant Matrix: (Units=GPa)
#
#
# Indices 1 2 3 4 5 6 
#
# 1 75.1193 47.8860 43.1323 0.0000 0.0000 0.0000
# 2 47.8860 75.1193 43.1323 0.0000 0.0000 0.0000
# 3 43.1323 43.1323 85.8988 0.0000 0.0000 0.0000
# 4 0.0000 0.0000 0.0000 15.6302 0.0000 0.0000
# 5 0.0000 0.0000 0.0000 0.0000 15.6302 0.0000
# 6 0.0000 0.0000 0.0000 0.0000 0.0000 13.6167
#
#
#
# Elastic Compliance Matrix: (Units=1/GPa)
#
#
# Indices 1 2 3 4 5 6 
#
# 1 0.024634 -0.012086 -0.006301 0.000000 0.000000 0.000000
# 2 -0.012086 0.024634 -0.006301 0.000000 0.000000 0.000000
# 3 -0.006301 -0.006301 0.017970 0.000000 0.000000 0.000000
# 4 0.000000 0.000000 0.000000 0.063979 0.000000 0.000000
# 5 0.000000 0.000000 0.000000 0.000000 0.063979 0.000000
# 6 0.000000 0.000000 0.000000 0.000000 0.000000 0.073439
#
#
# Mechanical properties :
#
#
# Convention : Reuss Voigt Hill
#
# Bulk Modulus (GPa) = 55.98274 56.04873 56.01573
# Shear Modulus (GPa) = 15.43379 15.77453 15.60416
#
# Velocity S-wave (km/s) = 3.08119 3.11502 3.09815
# Velocity P-wave (km/s) = 6.86257 6.88585 6.87422
#
# Compressibility (1/GPa) = 0.01786265
#
# Stress axis : x y z
#
# Youngs Moduli (GPa) = 40.59391 40.59391 55.64979
#
# Poissons Ratio (x) = 0.49060 0.35065
# Poissons Ratio (y) = 0.49060 0.35065
# Poissons Ratio (z) = 0.25579 0.25579
#
# Static dielectric constant tensor:
#      x y z
#    x 1.544350 0.000000 0.000000 
#    y 0.000000 1.544350 0.000000 
#    z 0.000000 0.000000 1.554670 
# 
# From -- ./inp_files/2994.got.cif
#   From: 2010.05.17/outbox.ucp.g08.bks.cvg/sg183_2_cif.got.tgz:2994.got - 2010.06.11 15:21:10.
