data_PCOD9585545
_publ_section_title
;
Structure prediction by ZEFSAII (Michael W. Deem and Ramdas Pophale) SiO2 
 PCOD9585545
Probable space group: P -6 M 2
;
_chemical_formula_sum "Si O2"
_cell_formula_units_Z 72
_cell_length_a 23.466914
_cell_length_b 23.466914
_cell_length_c 7.837521
_cell_angle_alpha 90.000000
_cell_angle_beta 90.000000
_cell_angle_gamma 120.000000
_cell_volume 3737.845211
_symmetry_space_group_name_H-M "P -6 M 2"
_symmetry_group_IT_number 187
_symmetry_cell_setting 'hexagonal'
loop_
_space_group_symop_operation_xyz
x,y,z
-x+y,-x,-z
-y,x-y,z
x,y,-z
-x+y,-x,z
-y,x-y,-z
-y,-x,-z
-x+y,y,-z
x,x-y,-z
-x+y,y,z
x,x-y,z
-y,-x,z
loop_
_atom_site_type_symbol
_atom_site_label
_atom_site_fract_x
_atom_site_fract_y
_atom_site_fract_z
Si Si1 0.725681 0.797523 0.205652
Si Si2 0.870694 0.000761 0.294841
Si Si3 0.331098 0.928277 0.203171
Si Si4 0.463962 0.406238 0.703307
Si Si5 0.333509 0.798900 0.791106
Si Si6 0.667347 0.203548 0.205509
O O1 0.721327 0.860664 0.267337
O O2 0.797993 0.811564 0.252131
O O3 0.663670 0.731084 0.271383
O O4 0.722484 0.797005 0.000000
O O5 0.875534 0.000870 0.500000
O O6 0.930927 0.069074 0.230734
O O7 0.876161 0.938081 0.231079
O O8 0.335085 0.865344 0.268365
O O9 0.397337 0.996660 0.231615
O O10 0.321423 0.917964 0.000000
O O11 0.463562 0.410595 0.500000
O O12 0.526648 0.473353 0.771094
O O13 0.478733 0.348111 0.748599
O O14 0.398643 0.797285 0.736616
O O15 0.266560 0.733441 0.739083
O O16 0.334065 0.799371 0.000000
O O17 0.605032 0.210064 0.267616
O O18 0.736059 0.263942 0.268039
O O19 0.667554 0.207439 0.000000
#
# Coordination Sequence:
#
# PCOD9585545 Si02
#       6
#    12  12  12  12  12  12
#     4   9  18  32  49  71  99 127 158 200 245 288
#     4   9  17  30  49  72  97 125 158 197 242 292
#     4  10  19  32  51  72  95 129 169 203 239 286
#     4  10  21  35  50  71 100 131 164 204 245 284
#     4   9  16  26  44  72 102 127 154 195 247 298
#     4   9  17  31  53  79 104 129 159 197 242 292
#
# _framework density 19.262435
#
# number of rings (size 3 to 8) (size 9 to 14) (size 15 to 20)
#    0.000    2.667    0.000    2.000    0.000    7.000 
#    0.000    0.833    0.000    4.500    0.000    0.000 
#    0.000    1.333    0.000    0.000    0.000    0.000 
#
# Total GULP energy -401653.143357 kJ/mol
# GULP energy per Si atom -5578.515880 kJ/mol
# Density = 1.921859 g / cm^3
# Si number density = 19.262435 Si / 1000 Ang^3
#
#
#
# Elastic Constant Matrix: (Units=GPa)
#
#
# Indices 1 2 3 4 5 6 
#
# 1 170.3881 110.1961 1.3475 0.0000 0.0001 0.0000
# 2 110.1961 170.3881 1.3475 0.0000 -0.0001 0.0000
# 3 1.3475 1.3475 19.5533 0.0000 0.0000 0.0000
# 4 0.0000 0.0000 0.0000 3.8486 0.0000 -0.0001
# 5 0.0001 -0.0001 0.0000 0.0000 3.8486 0.0000
# 6 0.0000 0.0000 0.0000 -0.0001 0.0000 30.0960
#
#
#
# Elastic Compliance Matrix: (Units=1/GPa)
#
#
# Indices 1 2 3 4 5 6 
#
# 1 0.010090 -0.006524 -0.000246 0.000000 0.000000 0.000000
# 2 -0.006524 0.010090 -0.000246 0.000000 0.000000 0.000000
# 3 -0.000246 -0.000246 0.051176 0.000000 0.000000 0.000000
# 4 0.000000 0.000000 0.000000 0.259837 0.000000 0.000001
# 5 0.000000 0.000000 0.000000 0.000000 0.259837 0.000000
# 6 0.000000 0.000000 0.000000 0.000001 0.000000 0.033227
#
#
# Mechanical properties :
#
#
# Convention : Reuss Voigt Hill
#
# Bulk Modulus (GPa) = 17.44416 65.12352 41.28384
# Shear Modulus (GPa) = 7.60577 24.05452 15.83014
#
# Velocity S-wave (km/s) = 1.98924 3.53764 2.86984
# Velocity P-wave (km/s) = 3.78838 7.11115 5.69738
#
# Compressibility (1/GPa) = 0.05732576
#
# Stress axis : x y z
#
# Youngs Moduli (GPa) = 99.10875 99.10875 19.54035
#
# Poissons Ratio (x) = 0.64654 0.00480
# Poissons Ratio (y) = 0.64654 0.00480
# Poissons Ratio (z) = 0.02436 0.02436
#
# Static dielectric constant tensor:
#      x y z
#    x 1.661490 0.000000 0.000000 
#    y 0.000000 1.661490 0.000000 
#    z 0.000000 0.000000 1.701770 
# 
# From -- ./inp_files/963.got.cif
#   From: 2010.05.17/outbox.cif.g08.bks.cpg/sg187_1_cif.got.tgz:963.got - 2010.05.20 12:09:04.
