data_PCOD9585539
_publ_section_title
;
Structure prediction by ZEFSAII (Michael W. Deem and Ramdas Pophale) SiO2 
 PCOD9585539
Probable space group: P -6 M 2
;
_chemical_formula_sum "Si O2"
_cell_formula_units_Z 72
_cell_length_a 23.672940
_cell_length_b 23.672940
_cell_length_c 8.572628
_cell_angle_alpha 90.000000
_cell_angle_beta 90.000000
_cell_angle_gamma 120.000000
_cell_volume 4160.533324
_symmetry_space_group_name_H-M "P -6 M 2"
_symmetry_group_IT_number 187
_symmetry_cell_setting 'hexagonal'
loop_
_space_group_symop_operation_xyz
x,y,z
-x+y,-x,-z
-y,x-y,z
x,y,-z
-x+y,-x,z
-y,x-y,-z
-y,-x,-z
-x+y,y,-z
x,x-y,-z
-x+y,y,z
x,x-y,z
-y,-x,z
loop_
_atom_site_type_symbol
_atom_site_label
_atom_site_fract_x
_atom_site_fract_y
_atom_site_fract_z
Si Si1 0.536795 0.203491 0.809542
Si Si2 0.926866 0.203422 0.188477
Si Si3 0.195287 0.261506 0.313335
Si Si4 0.927994 0.335281 0.811147
Si Si5 0.537277 0.944347 0.313229
Si Si6 0.268203 0.407369 0.186764
O O1 0.602032 0.204064 0.758499
O O2 0.535912 0.267956 0.758145
O O3 0.472156 0.137772 0.761847
O O4 0.537176 0.204135 0.000000
O O5 0.862523 0.137478 0.240112
O O6 0.924946 0.268275 0.237828
O O7 0.994731 0.212591 0.249976
O O8 0.927654 0.203159 0.000000
O O9 0.200253 0.264840 0.500000
O O10 0.122280 0.244559 0.269064
O O11 0.243155 0.333821 0.246105
O O12 0.990678 0.399194 0.747462
O O13 0.931317 0.337825 0.000000
O O14 0.538116 0.945035 0.500000
O O15 0.471122 0.942243 0.259608
O O16 0.545086 0.884315 0.254098
O O17 0.211696 0.423392 0.232717
O O18 0.271568 0.406937 0.000000
#
# Coordination Sequence:
#
# PCOD9585539 Si02
#       6
#    12  12  12  12  12  12
#     4   9  16  26  42  65  93 127 170 220 271 320
#     4  10  20  33  51  78 111 145 181 222 268 319
#     4  10  20  34  54  80 109 140 175 217 265 319
#     4  10  19  32  50  73 102 138 177 222 273 320
#     4  11  23  36  52  78 112 146 179 218 264 315
#     4  10  20  35  57  83 108 136 173 218 266 316
#
# _framework density 17.305475000000001
#
# number of rings (size 3 to 8) (size 9 to 14) (size 15 to 20)
#    0.000    2.000    1.667    2.667    0.000    7.000 
#    0.000    0.000    0.000    2.167    0.000    0.000 
#    0.000    1.333    0.000    0.000    0.000    0.000 
#
# Total GULP energy -401943.144031 kJ/mol
# GULP energy per Si atom -5582.543667 kJ/mol
# Density = 1.726609 g / cm^3
# Si number density = 17.305475 Si / 1000 Ang^3
#
#
#
# Elastic Constant Matrix: (Units=GPa)
#
#
# Indices 1 2 3 4 5 6 
#
# 1 147.7008 92.3556 28.3264 0.0000 0.0004 0.0000
# 2 92.3556 147.7008 28.3264 0.0000 -0.0004 0.0000
# 3 28.3264 28.3264 18.2993 0.0000 0.0000 0.0000
# 4 0.0000 0.0000 0.0000 15.1466 0.0000 -0.0004
# 5 0.0004 -0.0004 0.0000 0.0000 15.1466 0.0000
# 6 0.0000 0.0000 0.0000 -0.0004 0.0000 27.6726
#
#
#
# Elastic Compliance Matrix: (Units=1/GPa)
#
#
# Indices 1 2 3 4 5 6 
#
# 1 0.012316 -0.005753 -0.010160 0.000000 0.000000 0.000000
# 2 -0.005753 0.012316 -0.010160 0.000000 0.000000 0.000000
# 3 -0.010160 -0.010160 0.086101 0.000000 0.000000 0.000000
# 4 0.000000 0.000000 0.000000 0.066021 0.000000 0.000001
# 5 0.000000 0.000000 0.000000 0.000000 0.066021 0.000000
# 6 0.000000 0.000000 0.000000 0.000001 0.000000 0.036137
#
#
# Mechanical properties :
#
#
# Convention : Reuss Voigt Hill
#
# Bulk Modulus (GPa) = 17.06829 67.96865 42.51847
# Shear Modulus (GPa) = 14.26185 22.57264 18.41725
#
# Velocity S-wave (km/s) = 2.87387 3.61552 3.26581
# Velocity P-wave (km/s) = 4.57127 7.53594 6.23245
#
# Compressibility (1/GPa) = 0.05858816
#
# Stress axis : x y z
#
# Youngs Moduli (GPa) = 81.19581 81.19582 11.61433
#
# Poissons Ratio (x) = 0.46708 0.11800
# Poissons Ratio (y) = 0.46708 0.11800
# Poissons Ratio (z) = 0.82493 0.82493
#
# Static dielectric constant tensor:
#      x y z
#    x 1.578480 0.000000 0.000000 
#    y 0.000000 1.578480 0.000000 
#    z 0.000000 0.000000 1.588950 
# 
# From -- ./inp_files/977.got.cif
#   From: 2010.05.17/outbox.cif.g08.bks.cpg/sg187_1_cif.got.tgz:977.got - 2010.05.20 12:09:04.
