data_PCOD9585013
_publ_section_title
;
Structure prediction by ZEFSAII (Michael W. Deem and Ramdas Pophale) SiO2 
 PCOD9585013
Probable space group: P 6 M M
;
_chemical_formula_sum "Si O2"
_cell_formula_units_Z 96
_cell_length_a 18.135559
_cell_length_b 18.135559
_cell_length_c 20.790333
_cell_angle_alpha 90.000000
_cell_angle_beta 90.000000
_cell_angle_gamma 120.000000
_cell_volume 5921.803200
_symmetry_space_group_name_H-M "P 6 M M"
_symmetry_group_IT_number 183
_symmetry_cell_setting 'hexagonal'
loop_
_space_group_symop_operation_xyz
x,y,z
x-y,x,z
-y,x-y,z
-x,-y,z
-x+y,-x,z
y,-x+y,z
-x+y,y,z
x,x-y,z
-y,-x,z
y,x,z
x-y,-y,z
-x,-x+y,z
loop_
_atom_site_type_symbol
_atom_site_label
_atom_site_fract_x
_atom_site_fract_y
_atom_site_fract_z
Si Si1 0.364642 0.896850 0.075570
Si Si2 0.733384 0.099822 0.197147
Si Si3 0.467156 0.365292 0.560422
Si Si4 0.495936 0.332139 0.703442
Si Si5 0.635403 0.532055 0.930742
Si Si6 0.737569 0.097826 0.813155
Si Si7 0.491668 0.332698 0.316908
Si Si8 0.099503 0.366766 0.436956
O O1 0.433604 0.867207 0.089598
O O2 0.297362 0.876298 0.131416
O O3 0.419034 0.000000 0.074211
O O4 0.330649 0.868806 0.003170
O O5 0.833387 0.166614 0.206200
O O6 0.683900 0.115983 0.254980
O O7 0.704053 0.000000 0.195560
O O8 0.564096 0.435905 0.542496
O O9 0.416861 0.416861 0.569485
O O10 0.469567 0.326793 0.629001
O O11 0.419403 0.299828 0.503387
O O12 0.523711 0.261856 0.715377
O O13 0.573423 0.426578 0.715076
O O14 0.418182 0.308766 0.751089
O O15 0.566222 0.433779 0.917087
O O16 0.581777 0.581777 0.931485
O O17 0.702609 0.577098 0.874676
O O18 0.837226 0.162775 0.806673
O O19 0.710303 0.000000 0.820585
O O20 0.515986 0.257993 0.316609
O O21 0.574956 0.425045 0.316553
O O22 0.433281 0.316422 0.379509
O O23 0.167457 0.334913 0.428906
O O24 0.000000 0.295523 0.436610
#
# Coordination Sequence:
#
# PCOD9585013 Si02
#       8
#    12  12  12  12  12  12  12  12
#     4   8  14  26  45  68  92 117 146 180 218 264
#     4  10  20  32  47  68  93 122 157 197 238 277
#     4   9  17  29  46  68  93 122 156 190 222 262
#     4  10  19  30  45  67  96 127 156 185 219 262
#     4   8  14  26  45  68  92 117 145 177 215 262
#     4  10  20  32  47  67  90 117 151 192 235 277
#     4  10  20  33  50  73 100 127 152 180 218 267
#     4  10  20  33  49  69  93 122 157 196 235 272
#
# _framework density 16.211278
#
# number of rings (size 3 to 8) (size 9 to 14) (size 15 to 20)
#    0.000    2.625    0.000    3.250    0.000    3.750 
#    0.000    0.000    0.000    4.875    0.000    0.000 
#    0.000    3.000    0.000   10.250    0.000    0.000 
#
# Total GULP energy -535030.868210 kJ/mol
# GULP energy per Si atom -5573.238211 kJ/mol
# Density = 1.617438 g / cm^3
# Si number density = 16.211278 Si / 1000 Ang^3
#
#
#
# Elastic Constant Matrix: (Units=GPa)
#
#
# Indices 1 2 3 4 5 6 
#
# 1 81.4991 56.3766 38.1991 0.0000 0.0000 0.0000
# 2 56.3766 81.4991 38.1991 0.0000 0.0000 0.0000
# 3 38.1991 38.1991 76.0307 0.0000 0.0000 0.0000
# 4 0.0000 0.0000 0.0000 14.8857 0.0000 0.0000
# 5 0.0000 0.0000 0.0000 0.0000 14.8857 0.0000
# 6 0.0000 0.0000 0.0000 0.0000 0.0000 12.5613
#
#
#
# Elastic Compliance Matrix: (Units=1/GPa)
#
#
# Indices 1 2 3 4 5 6 
#
# 1 0.024928 -0.014877 -0.005050 0.000000 0.000000 0.000000
# 2 -0.014877 0.024928 -0.005050 0.000000 0.000000 0.000000
# 3 -0.005050 -0.005050 0.018227 0.000000 0.000000 0.000000
# 4 0.000000 0.000000 0.000000 0.067178 0.000000 0.000000
# 5 0.000000 0.000000 0.000000 0.000000 0.067178 0.000000
# 6 0.000000 0.000000 0.000000 0.000000 0.000000 0.079610
#
#
# Mechanical properties :
#
#
# Convention : Reuss Voigt Hill
#
# Bulk Modulus (GPa) = 55.15828 56.06429 55.61128
# Shear Modulus (GPa) = 14.79089 15.55015 15.17052
#
# Velocity S-wave (km/s) = 3.02384 3.10048 3.06240
# Velocity P-wave (km/s) = 6.80368 6.89028 6.84711
#
# Compressibility (1/GPa) = 0.01812965
#
# Stress axis : x y z
#
# Youngs Moduli (GPa) = 40.11556 40.11556 54.86421
#
# Poissons Ratio (x) = 0.59680 0.27705
# Poissons Ratio (y) = 0.59680 0.27705
# Poissons Ratio (z) = 0.20258 0.20258
#
# Static dielectric constant tensor:
#      x y z
#    x 1.533900 0.000000 0.000000 
#    y 0.000000 1.533900 0.000000 
#    z 0.000000 0.000000 1.557370 
# 
# From -- ./inp_files/2938.got.cif
#   From: 2010.05.17/outbox.cif.g08.bks.cpg/sg183_2_cif.got.tgz:2938.got - 2010.05.20 12:02:58.
