data_PCOD9585833
_publ_section_title
;
Structure prediction by ZEFSAII (Michael W. Deem and Ramdas Pophale) SiO2 
 PCOD9585833
Probable space group: P -6 M 2
;
_chemical_formula_sum "Si O2"
_cell_formula_units_Z 66
_cell_length_a 12.000000
_cell_length_b 12.000000
_cell_length_c 30.000000
_cell_angle_alpha 90.000000
_cell_angle_beta 90.000000
_cell_angle_gamma 120.000000
_cell_volume 3741.229744
_symmetry_space_group_name_H-M "P -6 M 2"
_symmetry_group_IT_number 187
_symmetry_cell_setting 'hexagonal'
loop_
_space_group_symop_operation_xyz
x,y,z
-x+y,-x,-z
-y,x-y,z
x,y,-z
-x+y,-x,z
-y,x-y,-z
-y,-x,-z
-x+y,y,-z
x,x-y,-z
-x+y,y,z
x,x-y,z
-y,-x,z
loop_
_atom_site_type_symbol
_atom_site_label
_atom_site_fract_x
_atom_site_fract_y
_atom_site_fract_z
Si Si1 0.735492 0.000099 0.090466
Si Si2 0.669897 0.072425 0.638914
Si Si3 0.666669 0.597933 0.181618
Si Si4 0.336014 0.404303 0.000000
Si Si5 0.330362 0.928337 0.271856
Si Si6 0.600135 0.667949 0.549156
O O1 0.874956 0.125045 0.092105
O O2 0.663620 0.997695 0.135899
O O3 0.747394 0.873697 0.088422
O O4 0.665401 0.004036 0.045360
O O5 0.533831 0.067661 0.638888
O O6 0.782965 0.217036 0.641901
O O7 0.671878 0.997293 0.682898
O O8 0.677843 0.011399 0.592166
O O9 0.792146 0.584292 0.180307
O O10 0.540761 0.459240 0.183970
O O11 0.670152 0.673158 0.226374
O O12 0.452448 0.547553 0.000000
O O13 0.201927 0.403854 0.000000
O O14 0.465814 0.931627 0.272044
O O15 0.216047 0.783954 0.271976
O O16 0.656174 0.669385 0.500000
O O17 0.581871 0.790935 0.551795
O O18 0.461276 0.538725 0.551066
#
# Coordination Sequence:
#
# PCOD9585833 Si02
#       6
#    12  12  12   6  12  12
#     4  10  20  34  53  76 103 135 170 208 249 295
#     4  10  20  33  50  72  99 131 165 201 242 290
#     4  10  20  34  53  76 103 135 169 205 245 292
#     4  10  20  34  52  74 100 130 166 208 254 300
#     4  10  20  34  53  76 100 126 159 202 251 298
#     4   9  17  30  50  75 100 126 158 199 246 292
#
# _framework density 17.641258000000001
#
# number of rings (size 3 to 8) (size 9 to 14) (size 15 to 20)
#    0.000    2.182    0.000    3.455    0.000    1.091 
#    0.000    4.545    0.000   17.091    0.000    0.000 
#    0.000    0.000    0.000    0.000    0.000    0.000 
#
# Total GULP energy -367840.219198 kJ/mol
# GULP energy per Si atom -5573.336655 kJ/mol
# Density = 1.760111 g / cm^3
# Si number density = 17.641258 Si / 1000 Ang^3
#
#
#
# Elastic Constant Matrix: (Units=GPa)
#
#
# Indices 1 2 3 4 5 6 
#
# 1 38.6822 -6.3591 35.1096 0.0000 -0.0017 0.0000
# 2 -6.3591 38.6822 35.1096 0.0000 0.0017 0.0000
# 3 35.1096 35.1096 178.1977 0.0000 0.0000 0.0000
# 4 0.0000 0.0000 0.0000 32.4494 0.0000 0.0017
# 5 -0.0017 0.0017 0.0000 0.0000 32.4494 0.0000
# 6 0.0000 0.0000 0.0000 0.0017 0.0000 22.5207
#
#
#
# Elastic Compliance Matrix: (Units=1/GPa)
#
#
# Indices 1 2 3 4 5 6 
#
# 1 0.038145 0.015944 -0.010657 0.000000 0.000001 0.000000
# 2 0.015944 0.038145 -0.010657 0.000000 -0.000001 0.000000
# 3 -0.010657 -0.010657 0.009811 0.000000 0.000000 0.000000
# 4 0.000000 0.000000 0.000000 0.030817 0.000000 -0.000002
# 5 0.000001 -0.000001 0.000000 0.000000 0.030817 0.000000
# 6 0.000000 0.000000 0.000000 -0.000002 0.000000 0.044404
#
#
# Mechanical properties :
#
#
# Convention : Reuss Voigt Hill
#
# Bulk Modulus (GPa) = 13.26937 42.58692 27.92815
# Shear Modulus (GPa) = 21.92970 30.26404 26.09687
#
# Velocity S-wave (km/s) = 3.52958 4.14638 3.85035
# Velocity P-wave (km/s) = 4.91413 6.86413 5.96929
#
# Compressibility (1/GPa) = 0.07536152
#
# Stress axis : x y z
#
# Youngs Moduli (GPa) = 26.21542 26.21542 101.92476
#
# Poissons Ratio (x) = -0.41797 1.08621
# Poissons Ratio (y) = -0.41797 1.08621
# Poissons Ratio (z) = 0.27938 0.27938
#
# Static dielectric constant tensor:
#      x y z
#    x 1.560240 0.000000 0.000000 
#    y 0.000000 1.560240 0.000000 
#    z 0.000000 0.000000 1.648180 
# 
# From -- ./inp_files/4428.got.cif
#   From: 2010.05.17/outbox.ucp.g08.bks.cvg/sg187_3_cif.got.tgz:4428.got - 2010.06.11 15:21:44.
