data_PCOD9585816
_publ_section_title
;
Structure prediction by ZEFSAII (Michael W. Deem and Ramdas Pophale) SiO2 
 PCOD9585816
Probable space group: P -6 M 2
;
_chemical_formula_sum "Si O2"
_cell_formula_units_Z 72
_cell_length_a 17.517360
_cell_length_b 17.517360
_cell_length_c 18.193394
_cell_angle_alpha 90.000000
_cell_angle_beta 90.000000
_cell_angle_gamma 120.000000
_cell_volume 4834.835108
_symmetry_space_group_name_H-M "P -6 M 2"
_symmetry_group_IT_number 187
_symmetry_cell_setting 'hexagonal'
loop_
_space_group_symop_operation_xyz
x,y,z
-x+y,-x,-z
-y,x-y,z
x,y,-z
-x+y,-x,z
-y,x-y,-z
-y,-x,-z
-x+y,y,-z
x,x-y,-z
-x+y,y,z
x,x-y,z
-y,-x,z
loop_
_atom_site_type_symbol
_atom_site_label
_atom_site_fract_x
_atom_site_fract_y
_atom_site_fract_z
Si Si1 0.665919 0.511480 0.816724
Si Si2 0.177850 0.177330 0.723322
Si Si3 0.583772 0.597703 0.914155
Si Si4 0.273890 0.369354 0.215441
Si Si5 0.299754 0.238763 0.584347
Si Si6 0.977198 0.577222 0.679464
O O1 0.762262 0.524523 0.818942
O O2 0.591056 0.408945 0.822360
O O3 0.645970 0.562199 0.881077
O O4 0.647083 0.547072 0.740754
O O5 0.076992 0.153984 0.723786
O O6 0.232555 0.263830 0.773505
O O7 0.219500 0.207383 0.641815
O O8 0.187550 0.093775 0.744714
O O9 0.484448 0.515553 0.904351
O O10 0.600084 0.678574 0.862809
O O11 0.599201 0.618531 0.000000
O O12 0.193906 0.387812 0.224870
O O13 0.349210 0.412970 0.277723
O O14 0.275751 0.242333 0.500000
O O15 0.327952 0.163976 0.589371
O O16 0.376367 0.332480 0.613218
O O17 0.984182 0.492091 0.659675
#
# Coordination Sequence:
#
# PCOD9585816 Si02
#       6
#    12  12  12  12  12  12
#     4   9  16  26  41  61  85 114 147 179 208 240
#     4   9  17  29  45  65  89 116 145 176 211 251
#     4   9  18  31  45  63  88 115 141 172 212 256
#     4   9  17  29  46  66  85 108 140 178 218 258
#     4   9  17  28  42  63  91 118 144 177 212 246
#     4   9  17  29  45  63  84 113 147 180 215 257
#
# _framework density 14.891923999999999
#
# number of rings (size 3 to 8) (size 9 to 14) (size 15 to 20)
#    0.000    3.000    0.000    2.333    0.000    5.333 
#    0.000    0.000    0.000    5.000    0.000    0.000 
#    0.000    1.333    0.000    1.000    0.000    0.000 
#
# Total GULP energy -400936.926109 kJ/mol
# GULP energy per Si atom -5568.568418 kJ/mol
# Density = 1.485803 g / cm^3
# Si number density = 14.891924 Si / 1000 Ang^3
#
#
#
# Elastic Constant Matrix: (Units=GPa)
#
#
# Indices 1 2 3 4 5 6 
#
# 1 51.4694 19.0034 11.0237 0.0000 -0.0001 0.0000
# 2 19.0034 51.4694 11.0237 0.0000 0.0001 0.0000
# 3 11.0237 11.0237 59.8798 0.0000 0.0000 0.0000
# 4 0.0000 0.0000 0.0000 12.9094 0.0000 0.0001
# 5 -0.0001 0.0001 0.0000 0.0000 12.9094 0.0000
# 6 0.0000 0.0000 0.0000 0.0001 0.0000 16.2330
#
#
#
# Elastic Compliance Matrix: (Units=1/GPa)
#
#
# Indices 1 2 3 4 5 6 
#
# 1 0.022929 -0.007872 -0.002772 0.000000 0.000000 0.000000
# 2 -0.007872 0.022929 -0.002772 0.000000 0.000000 0.000000
# 3 -0.002772 -0.002772 0.017721 0.000000 0.000000 0.000000
# 4 0.000000 0.000000 0.000000 0.077463 0.000000 -0.000001
# 5 0.000000 0.000000 0.000000 0.000000 0.077463 0.000000
# 6 0.000000 0.000000 0.000000 -0.000001 0.000000 0.061603
#
#
# Mechanical properties :
#
#
# Convention : Reuss Voigt Hill
#
# Bulk Modulus (GPa) = 27.21307 27.21336 27.21322
# Shear Modulus (GPa) = 15.66469 16.52822 16.09646
#
# Velocity S-wave (km/s) = 3.24681 3.33510 3.29125
# Velocity P-wave (km/s) = 5.68938 5.75709 5.72334
#
# Compressibility (1/GPa) = 0.03674704
#
# Stress axis : x y z
#
# Youngs Moduli (GPa) = 43.61244 43.61244 56.43098
#
# Poissons Ratio (x) = 0.34332 0.15643
# Poissons Ratio (y) = 0.34332 0.15643
# Poissons Ratio (z) = 0.12089 0.12089
#
# Static dielectric constant tensor:
#      x y z
#    x 1.489170 0.000000 0.000000 
#    y 0.000000 1.489170 0.000000 
#    z 0.000000 0.000000 1.481690 
# 
# From -- ./inp_files/3058.got.cif
#   From: 2010.05.17/outbox.cif.g08.bks.cpg/sg187_2_cif.got.tgz:3058.got - 2010.05.20 12:09:04.
