data_PCOD9585289
_publ_section_title
;
Structure prediction by ZEFSAII (Michael W. Deem and Ramdas Pophale) SiO2 
 PCOD9585289
Probable space group: P 63 C M
;
_chemical_formula_sum "Si O2"
_cell_formula_units_Z 84
_cell_length_a 16.369142
_cell_length_b 16.369142
_cell_length_c 16.341263
_cell_angle_alpha 90.000000
_cell_angle_beta 90.000000
_cell_angle_gamma 120.000000
_cell_volume 3791.997861
_symmetry_space_group_name_H-M "P 63 C M"
_symmetry_group_IT_number 185
_symmetry_cell_setting 'hexagonal'
loop_
_space_group_symop_operation_xyz
x,y,z
x-y,x,1/2+z
-y,x-y,z
-x,-y,1/2+z
-x+y,-x,z
y,-x+y,1/2+z
-x+y,y,1/2+z
x,x-y,1/2+z
-y,-x,1/2+z
y,x,z
x-y,-y,z
-x,-x+y,z
loop_
_atom_site_type_symbol
_atom_site_label
_atom_site_fract_x
_atom_site_fract_y
_atom_site_fract_z
Si Si1 0.888508 0.429580 0.149300
Si Si2 0.733076 0.108615 0.000656
Si Si3 0.899904 0.100783 0.914360
Si Si4 0.361052 0.106361 0.115623
Si Si5 0.112975 0.556222 0.462167
Si Si6 0.171267 0.894469 0.744328
Si Si7 0.349189 0.885023 0.800736
O O1 0.881811 0.330713 0.168706
O O2 0.849984 0.466772 0.221769
O O3 0.000000 0.506461 0.143635
O O4 0.850857 0.415373 0.055766
O O5 0.812362 0.106973 0.946286
O O6 0.660147 0.126337 0.949164
O O7 0.669601 0.000000 0.035388
O O8 0.798834 0.193954 0.061844
O O9 0.898447 0.109649 0.817490
O O10 0.000000 0.183079 0.944512
O O11 0.883879 0.000000 0.939316
O O12 0.285974 0.109848 0.174769
O O13 0.315534 0.000000 0.077583
O O14 0.149210 0.630359 0.387607
O O15 0.000000 0.515406 0.465657
O O16 0.244588 0.866073 0.783975
O O17 0.234927 0.000000 0.710526
O O18 0.414354 0.000000 0.802955
#
# Coordination Sequence:
#
# PCOD9585289 Si02
#       7
#    12  12  12  12  12  12  12
#     4   9  19  33  53  83 114 146 188 245 311 373
#     4  10  21  36  58  85 118 159 212 267 320 380
#     4  10  21  36  56  86 126 170 214 264 315 364
#     4  11  22  35  57  87 122 160 210 263 314 379
#     4   9  18  34  58  86 112 142 191 256 322 384
#     4  10  21  36  58  85 118 159 212 267 320 380
#     4   9  18  34  58  86 112 142 191 256 322 384
#
# _framework density 22.151910999999998
#
# number of rings (size 3 to 8) (size 9 to 14) (size 15 to 20)
#    0.000    2.286    0.000    2.286    4.000    2.286 
#    0.000    0.000    0.000    8.571    3.714    0.000 
#    0.000    0.000    0.000    0.000    0.000    0.000 
#
# Total GULP energy -468047.776543 kJ/mol
# GULP energy per Si atom -5571.997340 kJ/mol
# Density = 2.210149 g / cm^3
# Si number density = 22.151911 Si / 1000 Ang^3
#
#
#
# Elastic Constant Matrix: (Units=GPa)
#
#
# Indices 1 2 3 4 5 6 
#
# 1 65.8189 27.0894 9.8577 0.0000 0.0000 0.0000
# 2 27.0894 65.8189 9.8577 0.0000 0.0000 0.0000
# 3 9.8577 9.8577 62.4620 0.0000 0.0000 0.0000
# 4 0.0000 0.0000 0.0000 24.0473 0.0000 0.0000
# 5 0.0000 0.0000 0.0000 0.0000 24.0473 0.0000
# 6 0.0000 0.0000 0.0000 0.0000 0.0000 19.3648
#
#
#
# Elastic Compliance Matrix: (Units=1/GPa)
#
#
# Indices 1 2 3 4 5 6 
#
# 1 0.018478 -0.007342 -0.001758 0.000000 0.000000 0.000000
# 2 -0.007342 0.018478 -0.001758 0.000000 0.000000 0.000000
# 3 -0.001758 -0.001758 0.016564 0.000000 0.000000 0.000000
# 4 0.000000 0.000000 0.000000 0.041585 0.000000 0.000000
# 5 0.000000 0.000000 0.000000 0.000000 0.041585 0.000000
# 6 0.000000 0.000000 0.000000 0.000000 0.000000 0.051640
#
#
# Mechanical properties :
#
#
# Convention : Reuss Voigt Hill
#
# Bulk Modulus (GPa) = 31.43971 31.96772 31.70371
# Shear Modulus (GPa) = 22.66069 23.31156 22.98613
#
# Velocity S-wave (km/s) = 3.20186 3.24751 3.22477
# Velocity P-wave (km/s) = 5.28136 5.34081 5.31117
#
# Compressibility (1/GPa) = 0.03180691
#
# Stress axis : x y z
#
# Youngs Moduli (GPa) = 54.11794 54.11794 60.37013
#
# Poissons Ratio (x) = 0.39733 0.10610
# Poissons Ratio (y) = 0.39733 0.10610
# Poissons Ratio (z) = 0.09511 0.09511
#
# Static dielectric constant tensor:
#      x y z
#    x 1.821280 0.000000 0.000000 
#    y 0.000000 1.821280 0.000000 
#    z 0.000000 0.000000 1.849200 
# 
# From -- ./inp_files/1497.got.cif
#   From: 2010.05.17/outbox.cif.g08.bks.cpg/sg185_cif.got.tgz:1497.got - 2010.05.20 12:05:34.
