data_PCOD9585652
_publ_section_title
;
Structure prediction by ZEFSAII (Michael W. Deem and Ramdas Pophale) SiO2 
 PCOD9585652
Probable space group: P -6 M 2
;
_chemical_formula_sum "Si O2"
_cell_formula_units_Z 54
_cell_length_a 12.657970
_cell_length_b 12.657970
_cell_length_c 24.278858
_cell_angle_alpha 90.000000
_cell_angle_beta 90.000000
_cell_angle_gamma 120.000000
_cell_volume 3368.891397
_symmetry_space_group_name_H-M "P -6 M 2"
_symmetry_group_IT_number 187
_symmetry_cell_setting 'hexagonal'
loop_
_space_group_symop_operation_xyz
x,y,z
-x+y,-x,-z
-y,x-y,z
x,y,-z
-x+y,-x,z
-y,x-y,-z
-y,-x,-z
-x+y,y,-z
x,x-y,-z
-x+y,y,z
x,x-y,z
-y,-x,z
loop_
_atom_site_type_symbol
_atom_site_label
_atom_site_fract_x
_atom_site_fract_y
_atom_site_fract_z
Si Si1 0.253107 0.999726 0.319919
Si Si2 0.415542 0.082584 0.000000
Si Si3 0.415714 0.082117 0.785837
Si Si4 0.999662 0.250657 0.892832
Si Si5 0.252646 0.999788 0.440856
O O1 0.125605 0.874396 0.312980
O O2 0.305980 0.999145 0.380846
O O3 0.229919 0.114960 0.318314
O O4 0.344520 0.020691 0.270499
O O5 0.335017 0.020840 0.054132
O O6 0.538232 0.076464 0.000000
O O7 0.445801 0.222901 0.000000
O O8 0.539529 0.079057 0.790569
O O9 0.442370 0.221185 0.785749
O O10 0.327680 0.017102 0.837603
O O11 0.128381 0.256761 0.894425
O O12 0.889604 0.110397 0.893378
O O13 0.309823 0.995801 0.500000
O O14 0.117539 0.882462 0.440190
O O15 0.243709 0.121854 0.441730
#
# Coordination Sequence:
#
# PCOD9585652 Si02
#       5
#    12   6  12  12  12
#     4   9  16  26  43  67  93 119 146 182 229 279
#     4  10  20  34  54  78 104 134 166 198 226 256
#     4  10  20  33  49  67  89 120 157 196 233 271
#     4  10  20  34  54  78 102 126 152 189 237 285
#     4   8  12  18  31  55  87 118 144 172 214 271
#
# _framework density 16.029012999999999
#
# number of rings (size 3 to 8) (size 9 to 14) (size 15 to 20)
#    0.000    2.667    0.000    2.667    0.000    2.667 
#    0.000    5.556    0.000   11.333    0.000    0.000 
#    0.000    1.778    0.000    0.000    0.000    0.000 
#
# Total GULP energy -300677.473997 kJ/mol
# GULP energy per Si atom -5568.101370 kJ/mol
# Density = 1.599253 g / cm^3
# Si number density = 16.029013 Si / 1000 Ang^3
#
#
#
# Elastic Constant Matrix: (Units=GPa)
#
#
# Indices 1 2 3 4 5 6 
#
# 1 83.7665 58.7864 68.1138 0.0000 -0.0003 0.0000
# 2 58.7864 83.7665 68.1138 0.0000 0.0003 0.0000
# 3 68.1138 68.1138 188.0301 0.0000 0.0000 0.0000
# 4 0.0000 0.0000 0.0000 6.5698 0.0000 0.0003
# 5 -0.0003 0.0003 0.0000 0.0000 6.5698 0.0000
# 6 0.0000 0.0000 0.0000 0.0003 0.0000 12.4901
#
#
#
# Elastic Compliance Matrix: (Units=1/GPa)
#
#
# Indices 1 2 3 4 5 6 
#
# 1 0.025380 -0.014651 -0.003887 0.000000 0.000002 0.000000
# 2 -0.014651 0.025380 -0.003887 0.000000 -0.000002 0.000000
# 3 -0.003887 -0.003887 0.008134 0.000000 0.000000 0.000000
# 4 0.000000 0.000000 0.000000 0.152211 0.000000 -0.000004
# 5 0.000002 -0.000002 0.000000 0.000000 0.152211 0.000000
# 6 0.000000 0.000000 0.000000 -0.000004 0.000000 0.080064
#
#
# Mechanical properties :
#
#
# Convention : Reuss Voigt Hill
#
# Bulk Modulus (GPa) = 71.19520 82.84347 77.01933
# Shear Modulus (GPa) = 10.14380 15.82922 12.98651
#
# Velocity S-wave (km/s) = 2.51836 3.14592 2.84947
# Velocity P-wave (km/s) = 7.27799 8.06172 7.67986
#
# Compressibility (1/GPa) = 0.01404589
#
# Stress axis : x y z
#
# Youngs Moduli (GPa) = 39.40041 39.40041 122.93864
#
# Poissons Ratio (x) = 0.57727 0.47781
# Poissons Ratio (y) = 0.57727 0.47781
# Poissons Ratio (z) = 0.15313 0.15313
#
# Static dielectric constant tensor:
#      x y z
#    x 1.496070 0.000000 0.000000 
#    y 0.000000 1.496070 0.000000 
#    z 0.000000 0.000000 1.591650 
# 
# From -- ./inp_files/3861.got.cif
#   From: 2010.05.17/outbox.cif.g08.bks.cpg/sg187_2_cif.got.tgz:3861.got - 2010.05.20 12:09:04.
