data_PCOD9585641
_publ_section_title
;
Structure prediction by ZEFSAII (Michael W. Deem and Ramdas Pophale) SiO2 
 PCOD9585641
Probable space group: P -6 M 2
;
_chemical_formula_sum "Si O2"
_cell_formula_units_Z 72
_cell_length_a 12.652971
_cell_length_b 12.652971
_cell_length_c 31.869976
_cell_angle_alpha 90.000000
_cell_angle_beta 90.000000
_cell_angle_gamma 120.000000
_cell_volume 4418.729267
_symmetry_space_group_name_H-M "P -6 M 2"
_symmetry_group_IT_number 187
_symmetry_cell_setting 'hexagonal'
loop_
_space_group_symop_operation_xyz
x,y,z
-x+y,-x,-z
-y,x-y,z
x,y,-z
-x+y,-x,z
-y,x-y,-z
-y,-x,-z
-x+y,y,-z
x,x-y,-z
-x+y,y,z
x,x-y,z
-y,-x,z
loop_
_atom_site_type_symbol
_atom_site_label
_atom_site_fract_x
_atom_site_fract_y
_atom_site_fract_z
Si Si1 0.917623 0.332951 0.836316
Si Si2 0.999952 0.251505 0.754420
Si Si3 0.414709 0.333055 0.500000
Si Si4 0.917640 0.332849 0.000000
Si Si5 0.251527 0.251152 0.918030
Si Si6 0.332590 0.414998 0.327490
Si Si7 0.667177 0.586909 0.408144
O O1 0.924006 0.462003 0.837566
O O2 0.777363 0.222638 0.837344
O O3 0.982510 0.312851 0.876450
O O4 0.976706 0.315615 0.794081
O O5 0.121880 0.243760 0.760809
O O6 0.017742 0.328285 0.712267
O O7 0.882725 0.117276 0.750683
O O8 0.543779 0.456222 0.500000
O O9 0.435803 0.217902 0.500000
O O10 0.357906 0.329664 0.545484
O O11 0.979388 0.313612 0.041180
O O12 0.777053 0.222948 0.000000
O O13 0.924135 0.462068 0.000000
O O14 0.221590 0.110795 0.917990
O O15 0.128447 0.256894 0.918825
O O16 0.218449 0.436897 0.329824
O O17 0.457934 0.542067 0.322494
O O18 0.342862 0.352612 0.370124
O O19 0.791482 0.582964 0.402830
O O20 0.550631 0.449369 0.407528
#
# Coordination Sequence:
#
# PCOD9585641 Si02
#       7
#    12  12   6   6  12  12  12
#     4  10  20  34  53  76 102 131 162 198 240 287
#     4  10  20  34  53  75  98 124 156 198 245 291
#     4   8  13  22  39  64  92 118 144 180 230 286
#     4  10  20  34  54  78 104 134 168 208 252 298
#     4  10  20  34  54  78 104 134 168 209 253 296
#     4  10  20  33  48  66  92 127 164 198 232 276
#     4   9  16  27  45  69  94 118 147 187 237 287
#
# _framework density 16.294276
#
# number of rings (size 3 to 8) (size 9 to 14) (size 15 to 20)
#    0.000    2.333    0.000    3.250    0.000    1.333 
#    0.000    4.583    0.000   14.667    0.000    1.167 
#    0.000    0.000    0.000    0.000    0.000    0.000 
#
# Total GULP energy -401476.290782 kJ/mol
# GULP energy per Si atom -5576.059594 kJ/mol
# Density = 1.625719 g / cm^3
# Si number density = 16.294276 Si / 1000 Ang^3
#
#
#
# Elastic Constant Matrix: (Units=GPa)
#
#
# Indices 1 2 3 4 5 6 
#
# 1 113.7835 67.1435 83.1193 0.0000 0.0003 0.0000
# 2 67.1435 113.7835 83.1193 0.0000 -0.0003 0.0000
# 3 83.1193 83.1193 172.5093 0.0000 0.0000 0.0000
# 4 0.0000 0.0000 0.0000 19.3614 0.0000 -0.0003
# 5 0.0003 -0.0003 0.0000 0.0000 19.3614 0.0000
# 6 0.0000 0.0000 0.0000 -0.0003 0.0000 23.3200
#
#
#
# Elastic Compliance Matrix: (Units=1/GPa)
#
#
# Indices 1 2 3 4 5 6 
#
# 1 0.015679 -0.005762 -0.004779 0.000000 0.000000 0.000000
# 2 -0.005762 0.015679 -0.004779 0.000000 0.000000 0.000000
# 3 -0.004779 -0.004779 0.010402 0.000000 0.000000 0.000000
# 4 0.000000 0.000000 0.000000 0.051649 0.000000 0.000001
# 5 0.000000 0.000000 0.000000 0.000000 0.051649 0.000000
# 6 0.000000 0.000000 0.000000 0.000001 0.000000 0.042882
#
#
# Mechanical properties :
#
#
# Convention : Reuss Voigt Hill
#
# Bulk Modulus (GPa) = 89.90595 96.31563 93.11079
# Shear Modulus (GPa) = 22.49361 23.52152 23.00756
#
# Velocity S-wave (km/s) = 3.71949 3.80352 3.76174
# Velocity P-wave (km/s) = 8.58733 8.86157 8.72553
#
# Compressibility (1/GPa) = 0.01112273
#
# Stress axis : x y z
#
# Youngs Moduli (GPa) = 63.77840 63.77840 96.13804
#
# Poissons Ratio (x) = 0.36746 0.45941
# Poissons Ratio (y) = 0.36746 0.45941
# Poissons Ratio (z) = 0.30477 0.30477
#
# Static dielectric constant tensor:
#      x y z
#    x 1.504670 0.000000 0.000000 
#    y 0.000000 1.504670 0.000000 
#    z 0.000000 0.000000 1.560880 
# 
# From -- ./inp_files/4526.got.cif
#   From: 2010.05.17/outbox.cif.g08.bks.cpg/sg187_3_cif.got.tgz:4526.got - 2010.05.20 12:09:04.
