data_PCOD9586836
_publ_section_title
;
Structure prediction by ZEFSAII (Michael W. Deem and Ramdas Pophale) SiO2 
 PCOD9586836
Probable space group: P -6 2 C
;
_chemical_formula_sum "Si O2"
_cell_formula_units_Z 74
_cell_length_a 15.275487
_cell_length_b 15.275487
_cell_length_c 18.952094
_cell_angle_alpha 90.000000
_cell_angle_beta 90.000000
_cell_angle_gamma 120.000000
_cell_volume 3829.816478
_symmetry_space_group_name_H-M "P -6 2 C"
_symmetry_group_IT_number 190
_symmetry_cell_setting 'hexagonal'
loop_
_space_group_symop_operation_xyz
x,y,z
-x+y,-x,1/2-z
-y,x-y,z
x,y,1/2-z
-x+y,-x,z
-y,x-y,1/2-z
x-y,-y,-z
-x,-x+y,-z
y,x,-z
y,x,1/2+z
x-y,-y,1/2+z
-x,-x+y,1/2+z
loop_
_atom_site_type_symbol
_atom_site_label
_atom_site_fract_x
_atom_site_fract_y
_atom_site_fract_z
Si Si1 0.157950 0.459674 0.097242
Si Si2 0.715402 0.544233 0.328689
Si Si3 0.666668 0.333334 0.527882
Si Si4 0.666666 0.333334 0.358675
Si Si5 0.273576 0.000000 0.000000
Si Si6 0.686951 0.882719 0.937228
Si Si7 0.494708 0.501761 0.332269
Si Si8 0.289609 0.369843 0.413741
O O1 0.236496 0.562732 0.055941
O O2 0.102192 0.488698 0.156068
O O3 0.223442 0.410310 0.124523
O O4 0.069116 0.372109 0.048825
O O5 0.726614 0.585781 0.250000
O O6 0.725087 0.445403 0.329718
O O7 0.801767 0.619020 0.379813
O O8 0.601406 0.510364 0.352495
O O9 0.666668 0.333334 0.443314
O O10 0.168417 0.917094 0.965896
O O11 0.620691 0.888930 0.002991
O O12 0.747831 0.004153 0.092391
O O13 0.473011 0.470467 0.250000
O O14 0.403113 0.430325 0.384107
#
# Coordination Sequence:
#
# PCOD9586836 Si02
#       8
#    12  12   4   4   6  12  12  12
#     4  11  22  40  59  90 126 165 217 262 332 388
#     4  11  23  39  59  88 125 167 206 257 328 388
#     4  12  24  37  62 100 120 169 218 262 324 403
#     4  12  22  34  54  85 124 154 197 250 298 379
#     4  10  20  38  64  88 122 166 202 284 324 378
#     4  10  21  40  62  91 124 161 216 270 324 387
#     4  11  24  40  60  88 130 170 212 269 328 396
#     4  10  22  39  62  94 124 167 221 267 328 394
#
# _framework density 19.322074000000001
#
# number of rings (size 3 to 8) (size 9 to 14) (size 15 to 20)
#    0.000    1.297    3.243    3.405    0.000    5.189 
#    0.000    0.000    0.000   20.757    0.000    0.000 
#    0.000    0.000    0.000    0.000    0.000    0.000 
#
# Total GULP energy -412566.208138 kJ/mol
# GULP energy per Si atom -5575.219029 kJ/mol
# Density = 1.927810 g / cm^3
# Si number density = 19.322074 Si / 1000 Ang^3
#
#
#
# Elastic Constant Matrix: (Units=GPa)
#
#
# Indices 1 2 3 4 5 6 
#
# 1 100.4850 27.6970 36.8970 0.0001 0.0000 0.0000
# 2 27.6970 100.4844 36.8970 0.0001 0.0000 0.0000
# 3 36.8970 36.8970 54.8627 -0.0001 0.0000 0.0000
# 4 0.0001 0.0001 -0.0001 15.7383 0.0002 0.0000
# 5 0.0000 0.0000 0.0000 0.0002 15.7380 0.0000
# 6 0.0000 0.0000 0.0000 0.0000 0.0000 36.3938
#
#
#
# Elastic Compliance Matrix: (Units=1/GPa)
#
#
# Indices 1 2 3 4 5 6 
#
# 1 0.013234 -0.000504 -0.008561 0.000000 0.000000 0.000000
# 2 -0.000504 0.013234 -0.008562 0.000000 0.000000 0.000000
# 3 -0.008561 -0.008562 0.029743 0.000000 0.000000 0.000000
# 4 0.000000 0.000000 0.000000 0.063539 -0.000001 0.000000
# 5 0.000000 0.000000 0.000000 -0.000001 0.063541 0.000000
# 6 0.000000 0.000000 0.000000 0.000000 0.000000 0.027477
#
#
# Mechanical properties :
#
#
# Convention : Reuss Voigt Hill
#
# Bulk Modulus (GPa) = 47.71546 50.97934 49.34740
# Shear Modulus (GPa) = 19.76211 23.86342 21.81277
#
# Velocity S-wave (km/s) = 3.20155 3.51812 3.36356
# Velocity P-wave (km/s) = 6.19798 6.55318 6.37805
#
# Compressibility (1/GPa) = 0.02095757
#
# Stress axis : x y z
#
# Youngs Moduli (GPa) = 75.56081 75.56017 33.62121
#
# Poissons Ratio (x) = 0.03809 0.28785
# Poissons Ratio (y) = 0.03809 0.28785
# Poissons Ratio (z) = 0.64691 0.64691
#
# Static dielectric constant tensor:
#      x y z
#    x 1.693300 0.000000 0.000000 
#    y 0.000000 1.693300 0.000000 
#    z 0.000000 0.000000 1.736470 
# 
# From -- ./inp_files/4420.got.cif
#   From: 2010.05.17/outbox.cif.g08.bks.cpg/sg190_3_cif.got.tgz:4420.got - 2010.05.20 12:16:56.
