data_PCOD9586337
_publ_section_title
;
Structure prediction by ZEFSAII (Michael W. Deem and Ramdas Pophale) SiO2 
 PCOD9586337
Probable space group: P -6 2 M
;
_chemical_formula_sum "Si O2"
_cell_formula_units_Z 84
_cell_length_a 19.523136
_cell_length_b 19.523136
_cell_length_c 14.835992
_cell_angle_alpha 90.000000
_cell_angle_beta 90.000000
_cell_angle_gamma 120.000000
_cell_volume 4897.183544
_symmetry_space_group_name_H-M "P -6 2 M"
_symmetry_group_IT_number 189
_symmetry_cell_setting 'hexagonal'
loop_
_space_group_symop_operation_xyz
x,y,z
-x+y,-x,-z
-y,x-y,z
x,y,-z
-x+y,-x,z
-y,x-y,-z
x-y,-y,-z
-x,-x+y,-z
y,x,-z
y,x,z
x-y,-y,z
-x,-x+y,z
loop_
_atom_site_type_symbol
_atom_site_label
_atom_site_fract_x
_atom_site_fract_y
_atom_site_fract_z
Si Si1 0.157318 0.344030 0.770059
Si Si2 0.707254 0.612650 0.397886
Si Si3 0.802880 0.290330 0.894312
Si Si4 0.905288 0.810663 0.105692
Si Si5 0.533270 0.377528 0.895142
Si Si6 0.431343 0.342057 0.731391
Si Si7 0.541182 0.095513 0.393938
O O1 0.114019 0.341587 0.677491
O O2 0.154340 0.408888 0.835088
O O3 0.125729 0.263254 0.826103
O O4 0.248740 0.382230 0.742318
O O5 0.736675 0.613379 0.500000
O O6 0.654551 0.654551 0.403231
O O7 0.645557 0.521316 0.370761
O O8 0.708144 0.234502 0.883093
O O9 0.827887 0.379849 0.871990
O O10 0.819768 0.287066 0.000000
O O11 0.866796 0.866796 0.116548
O O12 0.000000 0.859707 0.120831
O O13 0.892841 0.784100 0.000000
O O14 0.469250 0.376702 0.828585
O O15 0.517749 0.384478 0.000000
O O16 0.373112 0.373112 0.702405
O O17 0.506401 0.379637 0.664086
O O18 0.558482 0.109889 0.500000
O O19 0.493192 0.000000 0.380290
#
# Coordination Sequence:
#
# PCOD9586337 Si02
#       7
#    12  12  12  12  12  12  12
#     4  11  20  31  50  77 106 131 160 209 266 311
#     4   9  18  33  53  75  98 128 166 206 251 302
#     4   9  17  29  45  68  97 131 171 209 245 287
#     4  10  21  38  59  80 102 132 171 215 268 335
#     4   9  17  29  45  63  89 128 168 202 235 278
#     4  10  20  31  44  67  98 131 165 196 234 289
#     4   8  15  30  50  68  90 125 166 202 233 270
#
# _framework density 17.152716999999999
#
# number of rings (size 3 to 8) (size 9 to 14) (size 15 to 20)
#    0.000    2.571    0.000    3.429    0.000    3.143 
#    0.000    0.714    0.000    3.571    0.000    0.000 
#    0.000    1.143    0.000    0.000    0.000    0.000 
#
# Total GULP energy -467959.701461 kJ/mol
# GULP energy per Si atom -5570.948827 kJ/mol
# Density = 1.711368 g / cm^3
# Si number density = 17.152717 Si / 1000 Ang^3
#
#
#
# Elastic Constant Matrix: (Units=GPa)
#
#
# Indices 1 2 3 4 5 6 
#
# 1 62.2803 34.4883 47.4883 0.0000 0.0000 0.0000
# 2 34.4883 62.2803 47.4883 0.0000 0.0000 0.0000
# 3 47.4883 47.4883 73.6479 0.0000 0.0000 0.0000
# 4 0.0000 0.0000 0.0000 25.8925 0.0000 0.0000
# 5 0.0000 0.0000 0.0000 0.0000 25.8925 0.0000
# 6 0.0000 0.0000 0.0000 0.0000 0.0000 13.8960
#
#
#
# Elastic Compliance Matrix: (Units=1/GPa)
#
#
# Indices 1 2 3 4 5 6 
#
# 1 0.032064 -0.003917 -0.018149 0.000000 0.000000 0.000000
# 2 -0.003917 0.032064 -0.018149 0.000000 0.000000 0.000000
# 3 -0.018149 -0.018149 0.036984 0.000000 0.000000 0.000000
# 4 0.000000 0.000000 0.000000 0.038621 0.000000 0.000000
# 5 0.000000 0.000000 0.000000 0.000000 0.038621 0.000000
# 6 0.000000 0.000000 0.000000 0.000000 0.000000 0.071963
#
#
# Mechanical properties :
#
#
# Convention : Reuss Voigt Hill
#
# Bulk Modulus (GPa) = 48.35460 50.79313 49.57387
# Shear Modulus (GPa) = 14.80851 17.71909 16.26380
#
# Velocity S-wave (km/s) = 2.94144 3.21755 3.08259
# Velocity P-wave (km/s) = 6.30777 6.59394 6.45244
#
# Compressibility (1/GPa) = 0.02068056
#
# Stress axis : x y z
#
# Youngs Moduli (GPa) = 31.18723 31.18723 27.03896
#
# Poissons Ratio (x) = 0.12216 0.49074
# Poissons Ratio (y) = 0.12216 0.49074
# Poissons Ratio (z) = 0.56603 0.56603
#
# Static dielectric constant tensor:
#      x y z
#    x 1.593850 0.000000 0.000000 
#    y 0.000000 1.593850 0.000000 
#    z 0.000000 0.000000 1.589750 
# 
# From -- ./inp_files/2791.got.cif
#   From: 2010.05.17/outbox.cif.g08.bks.cpg/sg189_2_cif.got.tgz:2791.got - 2010.05.20 12:14:34.
