data_PCOD9586863
_publ_section_title
;
Structure prediction by ZEFSAII (Michael W. Deem and Ramdas Pophale) SiO2 
 PCOD9586863
Probable space group: P -6 2 C
;
_chemical_formula_sum "Si O2"
_cell_formula_units_Z 46
_cell_length_a 14.403502
_cell_length_b 14.403502
_cell_length_c 13.926966
_cell_angle_alpha 90.000000
_cell_angle_beta 90.000000
_cell_angle_gamma 120.000000
_cell_volume 2502.207616
_symmetry_space_group_name_H-M "P -6 2 C"
_symmetry_group_IT_number 190
_symmetry_cell_setting 'hexagonal'
loop_
_space_group_symop_operation_xyz
x,y,z
-x+y,-x,1/2-z
-y,x-y,z
x,y,1/2-z
-x+y,-x,z
-y,x-y,1/2-z
x-y,-y,-z
-x,-x+y,-z
y,x,-z
y,x,1/2+z
x-y,-y,1/2+z
-x,-x+y,1/2+z
loop_
_atom_site_type_symbol
_atom_site_label
_atom_site_fract_x
_atom_site_fract_y
_atom_site_fract_z
Si Si1 0.117785 0.522603 0.462994
Si Si2 0.216474 0.223628 0.135176
Si Si3 0.404213 0.241109 0.005569
Si Si4 0.000000 0.000000 0.364998
Si Si5 0.197183 0.566188 0.250000
O O1 0.167376 0.456697 0.511530
O O2 0.155892 0.644442 0.491928
O O3 0.134727 0.521813 0.348531
O O4 0.000000 0.463868 0.500000
O O5 0.220916 0.232464 0.250000
O O6 0.213787 0.323558 0.085114
O O7 0.325034 0.231349 0.092260
O O8 0.109641 0.110021 0.108345
O O9 0.000000 0.000000 0.250000
O O10 0.251287 0.696114 0.250000
#
# Coordination Sequence:
#
# PCOD9586863 Si02
#       5
#    12  12  12   4   6
#     4  12  24  41  64 100 130 165 220 275 328 383
#     4  10  23  43  67  93 129 171 218 272 335 388
#     4  11  24  41  63  95 131 169 214 275 316 400
#     4   9  21  43  65  91 124 170 223 271 314 385
#     4  10  20  42  72  86 120 182 226 264 312 384
#
# _framework density 18.383766999999999
#
# number of rings (size 3 to 8) (size 9 to 14) (size 15 to 20)
#    0.261    1.043    5.217    0.522    7.304    3.130 
#    2.348    0.000    0.000    0.000    0.000    0.000 
#    0.000    0.000    0.000    0.000    0.000    0.000 
#
# Total GULP energy -256234.853679 kJ/mol
# GULP energy per Si atom -5570.322906 kJ/mol
# Density = 1.834193 g / cm^3
# Si number density = 18.383767 Si / 1000 Ang^3
#
#
#
# Elastic Constant Matrix: (Units=GPa)
#
#
# Indices 1 2 3 4 5 6 
#
# 1 144.7584 48.4909 1.0248 0.0000 0.0000 0.0000
# 2 48.4909 144.7584 1.0248 0.0000 0.0000 0.0000
# 3 1.0248 1.0248 73.6514 0.0000 0.0000 0.0000
# 4 0.0000 0.0000 0.0000 29.2827 0.0000 0.0000
# 5 0.0000 0.0000 0.0000 0.0000 29.2827 0.0000
# 6 0.0000 0.0000 0.0000 0.0000 0.0000 48.1337
#
#
#
# Elastic Compliance Matrix: (Units=1/GPa)
#
#
# Indices 1 2 3 4 5 6 
#
# 1 0.007782 -0.002606 -0.000072 0.000000 0.000000 0.000000
# 2 -0.002606 0.007782 -0.000072 0.000000 0.000000 0.000000
# 3 -0.000072 -0.000072 0.013579 0.000000 0.000000 0.000000
# 4 0.000000 0.000000 0.000000 0.034150 0.000000 0.000000
# 5 0.000000 0.000000 0.000000 0.000000 0.034150 0.000000
# 6 0.000000 0.000000 0.000000 0.000000 0.000000 0.020775
#
#
# Mechanical properties :
#
#
# Convention : Reuss Voigt Hill
#
# Bulk Modulus (GPa) = 42.29708 51.58324 46.94016
# Shear Modulus (GPa) = 37.99421 42.18166 40.08793
#
# Velocity S-wave (km/s) = 4.55106 4.79530 4.67477
# Velocity P-wave (km/s) = 7.11856 7.66680 7.39776
#
# Compressibility (1/GPa) = 0.02364229
#
# Stress axis : x y z
#
# Youngs Moduli (GPa) = 128.50869 128.50869 73.64051
#
# Poissons Ratio (x) = 0.33491 0.00530
# Poissons Ratio (y) = 0.33491 0.00530
# Poissons Ratio (z) = 0.00925 0.00925
#
# Static dielectric constant tensor:
#      x y z
#    x 1.594650 0.000000 0.000000 
#    y 0.000000 1.594650 0.000000 
#    z 0.000000 0.000000 1.624420 
# 
# From -- ./inp_files/2633.got.cif
#   From: 2010.05.17/outbox.cif.g08.bks.cpg/sg190_2_cif.got.tgz:2633.got - 2010.05.20 12:16:56.
