data_PCOD9586784
_publ_section_title
;
Structure prediction by ZEFSAII (Michael W. Deem and Ramdas Pophale) SiO2 
 PCOD9586784
Probable space group: P -6 2 C
;
_chemical_formula_sum "Si O2"
_cell_formula_units_Z 76
_cell_length_a 17.105458
_cell_length_b 17.105458
_cell_length_c 15.263189
_cell_angle_alpha 90.000000
_cell_angle_beta 90.000000
_cell_angle_gamma 120.000000
_cell_volume 3867.633628
_symmetry_space_group_name_H-M "P -6 2 C"
_symmetry_group_IT_number 190
_symmetry_cell_setting 'hexagonal'
loop_
_space_group_symop_operation_xyz
x,y,z
-x+y,-x,1/2-z
-y,x-y,z
x,y,1/2-z
-x+y,-x,z
-y,x-y,1/2-z
x-y,-y,-z
-x,-x+y,-z
y,x,-z
y,x,1/2+z
x-y,-y,1/2+z
-x,-x+y,1/2+z
loop_
_atom_site_type_symbol
_atom_site_label
_atom_site_fract_x
_atom_site_fract_y
_atom_site_fract_z
Si Si1 0.571944 0.610055 0.356096
Si Si2 0.756607 0.063528 0.419946
Si Si3 0.998053 0.820265 0.250000
Si Si4 0.179735 0.001947 0.250000
Si Si5 0.756607 0.693079 0.080054
Si Si6 0.333334 0.666668 0.356664
Si Si7 0.428056 0.389945 0.643904
Si Si8 0.770667 0.229333 0.643549
O O1 0.578202 0.609711 0.250000
O O2 0.656947 0.610241 0.399768
O O3 0.475274 0.524725 0.379628
O O4 0.579804 0.705623 0.382905
O O5 0.783658 0.026849 0.334468
O O6 0.833900 0.166100 0.434060
O O7 0.748876 0.000000 0.500000
O O8 0.656947 0.046706 0.399769
O O9 0.929825 0.859650 0.250000
O O10 0.100914 0.899086 0.250000
O O11 0.243191 0.026849 0.165532
O O12 0.748876 0.748876 0.000000
O O13 0.333334 0.666668 0.250000
O O14 0.436766 0.718384 0.383648
O O15 0.421797 0.390289 0.750000
O O16 0.420195 0.294377 0.617095
O O17 0.772242 0.227758 0.750000
#
# Coordination Sequence:
#
# PCOD9586784 Si02
#       8
#    12  12   6   6  12   4  12  12
#     4  10  20  34  58  89 119 156 196 237 290 357
#     4  11  24  40  61  88 118 157 204 254 305 361
#     4  10  21  38  59  84 114 152 198 252 309 362
#     4  10  21  38  59  84 114 152 198 252 309 362
#     4  11  24  40  61  88 118 157 204 254 305 361
#     4   9  12  24  42  78 129 150 177 229 290 358
#     4  10  20  34  58  89 119 156 196 237 290 357
#     4   9  16  26  48  84 121 153 187 233 290 357
#
# _framework density 19.650258999999998
#
# number of rings (size 3 to 8) (size 9 to 14) (size 15 to 20)
#    0.000    1.895    3.158    1.105    4.421    0.632 
#    0.000    0.000    0.000    5.684    0.000    0.000 
#    0.000    0.000    0.000    0.000    0.000    0.000 
#
# Total GULP energy -424430.241804 kJ/mol
# GULP energy per Si atom -5584.608445 kJ/mol
# Density = 1.960553 g / cm^3
# Si number density = 19.650259 Si / 1000 Ang^3
#
#
#
# Elastic Constant Matrix: (Units=GPa)
#
#
# Indices 1 2 3 4 5 6 
#
# 1 110.6528 60.2080 23.2332 0.0000 0.0000 0.0000
# 2 60.2080 110.6525 23.2332 0.0000 0.0000 0.0000
# 3 23.2332 23.2332 81.6387 0.0000 0.0000 0.0000
# 4 0.0000 0.0000 0.0000 18.8693 0.0000 0.0000
# 5 0.0000 0.0000 0.0000 0.0000 18.8693 0.0000
# 6 0.0000 0.0000 0.0000 0.0000 0.0000 25.2225
#
#
#
# Elastic Compliance Matrix: (Units=1/GPa)
#
#
# Indices 1 2 3 4 5 6 
#
# 1 0.013084 -0.006740 -0.001805 0.000000 0.000000 0.000000
# 2 -0.006740 0.013084 -0.001805 0.000000 0.000000 0.000000
# 3 -0.001805 -0.001805 0.013277 0.000000 0.000000 0.000000
# 4 0.000000 0.000000 0.000000 0.052996 0.000000 0.000000
# 5 0.000000 0.000000 0.000000 0.000000 0.052996 0.000000
# 6 0.000000 0.000000 0.000000 0.000000 0.000000 0.039647
#
#
# Mechanical properties :
#
#
# Convention : Reuss Voigt Hill
#
# Bulk Modulus (GPa) = 53.35406 57.36587 55.35996
# Shear Modulus (GPa) = 23.58132 25.67687 24.62910
#
# Velocity S-wave (km/s) = 3.46793 3.61874 3.54414
# Velocity P-wave (km/s) = 6.57618 6.83500 6.70684
#
# Compressibility (1/GPa) = 0.01874272
#
# Stress axis : x y z
#
# Youngs Moduli (GPa) = 76.43110 76.43089 75.32033
#
# Poissons Ratio (x) = 0.51514 0.13598
# Poissons Ratio (y) = 0.51515 0.13598
# Poissons Ratio (z) = 0.13798 0.13798
#
# Static dielectric constant tensor:
#      x y z
#    x 1.701920 0.000000 0.000000 
#    y 0.000000 1.701920 0.000000 
#    z 0.000000 0.000000 1.706870 
# 
# From -- ./inp_files/3130.got.cif
#   From: 2010.05.17/outbox.cif.g08.bks.cpg/sg190_2_cif.got.tgz:3130.got - 2010.05.20 12:16:56.
