data_PCOD9586205
_publ_section_title
;
Structure prediction by ZEFSAII (Michael W. Deem and Ramdas Pophale) SiO2 
 PCOD9586205
Probable space group: P -6 2 M
;
_chemical_formula_sum "Si O2"
_cell_formula_units_Z 96
_cell_length_a 15.398034
_cell_length_b 15.398034
_cell_length_c 30.171224
_cell_angle_alpha 90.000000
_cell_angle_beta 90.000000
_cell_angle_gamma 120.000000
_cell_volume 6195.182570
_symmetry_space_group_name_H-M "P -6 2 M"
_symmetry_group_IT_number 189
_symmetry_cell_setting 'hexagonal'
loop_
_space_group_symop_operation_xyz
x,y,z
-x+y,-x,-z
-y,x-y,z
x,y,-z
-x+y,-x,z
-y,x-y,-z
x-y,-y,-z
-x,-x+y,-z
y,x,-z
y,x,z
x-y,-y,z
-x,-x+y,z
loop_
_atom_site_type_symbol
_atom_site_label
_atom_site_fract_x
_atom_site_fract_y
_atom_site_fract_z
Si Si1 0.120412 0.878414 0.354441
Si Si2 0.763810 0.882454 0.815889
Si Si3 0.880488 0.760536 0.452405
Si Si4 0.116041 0.412631 0.051143
Si Si5 0.648365 0.767420 0.270539
Si Si6 0.541129 0.117436 0.132171
Si Si7 0.550361 0.225004 0.219767
Si Si8 0.379655 0.261926 0.107694
O O1 0.143315 0.853863 0.403967
O O2 0.171224 0.846500 0.316187
O O3 0.000000 0.823686 0.348711
O O4 0.168803 0.000000 0.351449
O O5 0.817058 0.817058 0.825043
O O6 0.704845 0.844459 0.769664
O O7 0.684751 0.868983 0.853643
O O8 0.845032 0.000000 0.813211
O O9 0.855095 0.704262 0.500000
O O10 0.826538 0.826538 0.452903
O O11 0.000000 0.833519 0.452141
O O12 0.128732 0.498006 0.085486
O O13 0.196633 0.382894 0.067241
O O14 0.000000 0.324156 0.055979
O O15 0.130577 0.444482 0.000000
O O16 0.698006 0.698006 0.273842
O O17 0.534433 0.697811 0.255239
O O18 0.522224 0.178327 0.170604
O O19 0.655739 0.145756 0.124831
O O20 0.479499 0.000000 0.144971
O O21 0.660079 0.236295 0.224785
O O22 0.324342 0.324342 0.096075
#
# Coordination Sequence:
#
# PCOD9586205 Si02
#       8
#    12  12  12  12  12  12  12  12
#     4   9  16  25  39  60  91 129 165 200 236 280
#     4  10  19  31  48  70  97 127 158 190 224 265
#     4   8  12  18  30  51  81 119 161 199 234 274
#     4  10  21  36  53  72  97 126 151 179 221 271
#     4  10  19  31  45  65  93 124 156 192 234 276
#     4  10  19  34  54  75  97 119 148 185 229 278
#     4  10  21  33  51  69  90 119 151 188 231 277
#     4  10  21  35  54  76  97 121 152 191 226 266
#
# _framework density 15.495911
#
# number of rings (size 3 to 8) (size 9 to 14) (size 15 to 20)
#    0.250    2.125    0.000    3.750    0.000    4.250 
#    0.750    4.375    0.000    0.250    0.000    0.000 
#    0.000    1.000    0.000    6.875    0.000    0.125 
#
# Total GULP energy -534452.064002 kJ/mol
# GULP energy per Si atom -5567.209000 kJ/mol
# Density = 1.546064 g / cm^3
# Si number density = 15.495911 Si / 1000 Ang^3
#
#
#
# Elastic Constant Matrix: (Units=GPa)
#
#
# Indices 1 2 3 4 5 6 
#
# 1 53.0768 20.4602 36.9302 0.0000 0.0000 0.0000
# 2 20.4602 53.0768 36.9302 0.0000 0.0000 0.0000
# 3 36.9302 36.9302 116.4451 0.0000 0.0000 0.0000
# 4 0.0000 0.0000 0.0000 15.9696 0.0000 0.0000
# 5 0.0000 0.0000 0.0000 0.0000 15.9696 0.0000
# 6 0.0000 0.0000 0.0000 0.0000 0.0000 16.3083
#
#
#
# Elastic Compliance Matrix: (Units=1/GPa)
#
#
# Indices 1 2 3 4 5 6 
#
# 1 0.025307 -0.005352 -0.006329 0.000000 0.000000 0.000000
# 2 -0.005352 0.025307 -0.006329 0.000000 0.000000 0.000000
# 3 -0.006329 -0.006329 0.012602 0.000000 0.000000 0.000000
# 4 0.000000 0.000000 0.000000 0.062619 0.000000 0.000000
# 5 0.000000 0.000000 0.000000 0.000000 0.062619 0.000000
# 6 0.000000 0.000000 0.000000 0.000000 0.000000 0.061319
#
#
# Mechanical properties :
#
#
# Convention : Reuss Voigt Hill
#
# Bulk Modulus (GPa) = 36.76820 45.69334 41.23077
# Shear Modulus (GPa) = 16.95733 18.20136 17.57934
#
# Velocity S-wave (km/s) = 3.31162 3.43095 3.37181
# Velocity P-wave (km/s) = 6.19691 6.72656 6.46716
#
# Compressibility (1/GPa) = 0.02719742
#
# Stress axis : x y z
#
# Youngs Moduli (GPa) = 39.51446 39.51446 79.35251
#
# Poissons Ratio (x) = 0.21148 0.50220
# Poissons Ratio (y) = 0.21148 0.50220
# Poissons Ratio (z) = 0.25008 0.25008
#
# Static dielectric constant tensor:
#      x y z
#    x 1.518950 0.000000 0.000000 
#    y 0.000000 1.518950 0.000000 
#    z 0.000000 0.000000 1.537530 
# 
# From -- ./inp_files/3756.got.cif
#   From: 2010.05.17/outbox.cif.g08.bks.cpg/sg189_2_cif.got.tgz:3756.got - 2010.05.20 12:14:34.
