data_PCOD9586415
_publ_section_title
;
Structure prediction by ZEFSAII (Michael W. Deem and Ramdas Pophale) SiO2 
 PCOD9586415
Probable space group: P -6 2 M
;
_chemical_formula_sum "Si O2"
_cell_formula_units_Z 68
_cell_length_a 22.003849
_cell_length_b 22.003849
_cell_length_c 8.938186
_cell_angle_alpha 90.000000
_cell_angle_beta 90.000000
_cell_angle_gamma 120.000000
_cell_volume 3747.807980
_symmetry_space_group_name_H-M "P -6 2 M"
_symmetry_group_IT_number 189
_symmetry_cell_setting 'hexagonal'
loop_
_space_group_symop_operation_xyz
x,y,z
-x+y,-x,-z
-y,x-y,z
x,y,-z
-x+y,-x,z
-y,x-y,-z
x-y,-y,-z
-x,-x+y,-z
y,x,-z
y,x,z
x-y,-y,z
-x,-x+y,z
loop_
_atom_site_type_symbol
_atom_site_label
_atom_site_fract_x
_atom_site_fract_y
_atom_site_fract_z
Si Si1 0.140470 0.140470 0.323022
Si Si2 0.379676 0.297378 0.320560
Si Si3 0.446986 0.082996 0.320637
Si Si4 0.000000 0.000000 0.681834
Si Si5 0.574967 0.084384 0.170161
Si Si6 0.138131 0.922206 0.826066
Si Si7 0.838183 0.213334 0.174550
O O1 0.141691 0.141691 0.500000
O O2 0.133890 0.204271 0.261235
O O3 0.069941 0.069941 0.269685
O O4 0.375952 0.290216 0.500000
O O5 0.324932 0.324932 0.276873
O O6 0.456646 0.358197 0.267611
O O7 0.371163 0.227149 0.245479
O O8 0.451809 0.086508 0.500000
O O9 0.522331 0.104775 0.248931
O O10 0.421054 0.134742 0.259362
O O11 0.393888 0.000000 0.281296
O O12 0.000000 0.000000 0.500000
O O13 0.530104 0.000000 0.160322
O O14 0.593975 0.111813 0.000000
O O15 0.198355 0.902723 0.818822
O O16 0.166106 0.000000 0.763993
O O17 0.119068 0.920861 0.000000
O O18 0.823177 0.218811 0.000000
#
# Coordination Sequence:
#
# PCOD9586415 Si02
#       7
#     6  12  12   2  12  12  12
#     4  11  21  35  53  71  95 127 176 235 294 351
#     4  10  21  37  56  81 114 149 187 229 276 330
#     4  10  20  35  57  85 115 146 183 227 278 331
#     4   9  18  33  49  71  91 117 166 233 292 345
#     4   9  17  32  57  85 110 139 176 216 261 316
#     4  10  22  38  53  72 100 138 185 236 292 347
#     4  11  23  37  55  79 112 149 188 234 282 334
#
# _framework density 18.143940000000001
#
# number of rings (size 3 to 8) (size 9 to 14) (size 15 to 20)
#    0.000    1.941    0.882    2.912    1.235    6.353 
#    0.000    0.000    0.000    0.706    0.000    4.941 
#    0.000    0.000    0.000    0.000    0.000    0.000 
#
# Total GULP energy -379281.331217 kJ/mol
# GULP energy per Si atom -5577.666636 kJ/mol
# Density = 1.810264 g / cm^3
# Si number density = 18.143940 Si / 1000 Ang^3
#
#
#
# Elastic Constant Matrix: (Units=GPa)
#
#
# Indices 1 2 3 4 5 6 
#
# 1 74.8988 29.3738 27.4120 0.0000 0.0000 0.0000
# 2 29.3738 74.8988 27.4120 0.0000 0.0000 0.0000
# 3 27.4120 27.4120 71.1168 0.0000 0.0000 0.0000
# 4 0.0000 0.0000 0.0000 27.1649 0.0000 0.0000
# 5 0.0000 0.0000 0.0000 0.0000 27.1649 0.0000
# 6 0.0000 0.0000 0.0000 0.0000 0.0000 22.7625
#
#
#
# Elastic Compliance Matrix: (Units=1/GPa)
#
#
# Indices 1 2 3 4 5 6 
#
# 1 0.016997 -0.004969 -0.004636 0.000000 0.000000 0.000000
# 2 -0.004969 0.016997 -0.004636 0.000000 0.000000 0.000000
# 3 -0.004636 -0.004636 0.017635 0.000000 0.000000 0.000000
# 4 0.000000 0.000000 0.000000 0.036812 0.000000 0.000000
# 5 0.000000 0.000000 0.000000 0.000000 0.036812 0.000000
# 6 0.000000 0.000000 0.000000 0.000000 0.000000 0.043932
#
#
# Mechanical properties :
#
#
# Convention : Reuss Voigt Hill
#
# Bulk Modulus (GPa) = 43.20310 43.25667 43.22989
# Shear Modulus (GPa) = 24.34468 24.53289 24.43879
#
# Velocity S-wave (km/s) = 3.66697 3.68112 3.67405
# Velocity P-wave (km/s) = 6.46466 6.47766 6.47117
#
# Compressibility (1/GPa) = 0.02314648
#
# Stress axis : x y z
#
# Youngs Moduli (GPa) = 58.83432 58.83432 56.70415
#
# Poissons Ratio (x) = 0.29235 0.26289
# Poissons Ratio (y) = 0.29235 0.26289
# Poissons Ratio (z) = 0.27276 0.27276
#
# Static dielectric constant tensor:
#      x y z
#    x 1.623010 0.000000 0.000000 
#    y 0.000000 1.623010 0.000000 
#    z 0.000000 0.000000 1.616200 
# 
# From -- ./inp_files/1082.got.cif
#   From: 2010.05.17/outbox.cif.g08.bks.cpg/sg189_1_cif.got.tgz:1082.got - 2010.05.20 12:14:34.
