data_PCOD9586505
_publ_section_title
;
Structure prediction by ZEFSAII (Michael W. Deem and Ramdas Pophale) SiO2 
 PCOD9586505
Probable space group: P -6 2 M
;
_chemical_formula_sum "Si O2"
_cell_formula_units_Z 63
_cell_length_a 21.267712
_cell_length_b 21.267712
_cell_length_c 8.284583
_cell_angle_alpha 90.000000
_cell_angle_beta 90.000000
_cell_angle_gamma 120.000000
_cell_volume 3245.210155
_symmetry_space_group_name_H-M "P -6 2 M"
_symmetry_group_IT_number 189
_symmetry_cell_setting 'hexagonal'
loop_
_space_group_symop_operation_xyz
x,y,z
-x+y,-x,-z
-y,x-y,z
x,y,-z
-x+y,-x,z
-y,x-y,-z
x-y,-y,-z
-x,-x+y,-z
y,x,-z
y,x,z
x-y,-y,z
-x,-x+y,z
loop_
_atom_site_type_symbol
_atom_site_label
_atom_site_fract_x
_atom_site_fract_y
_atom_site_fract_z
Si Si1 0.000000 0.183892 0.500000
Si Si2 0.465420 0.917354 0.308079
Si Si3 0.720647 0.720647 0.803133
Si Si4 0.135990 0.439108 0.807016
Si Si5 0.239332 0.153927 0.500000
Si Si6 0.697482 0.912943 0.826645
Si Si7 0.291677 0.470568 0.815364
O O1 0.000000 0.225433 0.334759
O O2 0.928538 0.106736 0.500000
O O3 0.463781 0.921742 0.500000
O O4 0.385353 0.891929 0.243038
O O5 0.486852 0.856602 0.266479
O O6 0.521488 0.000000 0.247601
O O7 0.642618 0.714894 0.769176
O O8 0.735805 0.735805 0.000000
O O9 0.217645 0.464407 0.744129
O O10 0.143162 0.440328 0.000000
O O11 0.207144 0.207144 0.500000
O O12 0.283561 0.169009 0.334866
O O13 0.612906 0.885402 0.820109
O O14 0.743795 0.000000 0.826810
O O15 0.711220 0.886871 0.000000
O O16 0.300226 0.497576 0.000000
#
# Coordination Sequence:
#
# PCOD9586505 Si02
#       7
#     3  12   6  12   6  12  12
#     4  12  24  36  62  92 118 164 202 250 300 352
#     4  11  24  39  58  86 121 161 204 248 306 375
#     4  10  22  40  66  96 126 158 201 259 322 377
#     4  10  21  39  62  87 117 156 200 254 314 370
#     4  10  22  38  56  85 122 155 197 234 293 353
#     4   9  18  35  59  86 116 148 184 240 303 357
#     4  10  21  37  59  86 112 148 198 247 301 363
#
# _framework density 19.413226999999999
#
# number of rings (size 3 to 8) (size 9 to 14) (size 15 to 20)
#    0.000    1.905    0.952    2.286    2.667    4.952 
#    1.429    0.000    0.000    0.000    0.000    0.000 
#    0.000    0.000    0.000    0.000    0.000    0.000 
#
# Total GULP energy -351076.107433 kJ/mol
# GULP energy per Si atom -5572.636626 kJ/mol
# Density = 1.936904 g / cm^3
# Si number density = 19.413227 Si / 1000 Ang^3
#
#
#
# Elastic Constant Matrix: (Units=GPa)
#
#
# Indices 1 2 3 4 5 6 
#
# 1 64.1530 30.1901 17.9191 0.0000 0.0000 0.0000
# 2 30.1901 64.1530 17.9191 0.0000 0.0000 0.0000
# 3 17.9191 17.9191 53.7544 0.0000 0.0000 0.0000
# 4 0.0000 0.0000 0.0000 217.2895 0.0000 0.0000
# 5 0.0000 0.0000 0.0000 0.0000 217.2895 0.0000
# 6 0.0000 0.0000 0.0000 0.0000 0.0000 16.9815
#
#
#
# Elastic Compliance Matrix: (Units=1/GPa)
#
#
# Indices 1 2 3 4 5 6 
#
# 1 0.020790 -0.008654 -0.004046 0.000000 0.000000 0.000000
# 2 -0.008654 0.020790 -0.004046 0.000000 0.000000 0.000000
# 3 -0.004046 -0.004046 0.021300 0.000000 0.000000 0.000000
# 4 0.000000 0.000000 0.000000 0.004602 0.000000 0.000000
# 5 0.000000 0.000000 0.000000 0.000000 0.004602 0.000000
# 6 0.000000 0.000000 0.000000 0.000000 0.000000 0.058888
#
#
# Mechanical properties :
#
#
# Convention : Reuss Voigt Hill
#
# Bulk Modulus (GPa) = 34.02457 34.90186 34.46322
# Shear Modulus (GPa) = 28.69279 98.04758 63.37019
#
# Velocity S-wave (km/s) = 3.84865 7.11444 5.71959
# Velocity P-wave (km/s) = 6.10852 9.24686 7.83640
#
# Compressibility (1/GPa) = 0.02939052
#
# Stress axis : x y z
#
# Youngs Moduli (GPa) = 48.09967 48.09967 46.94753
#
# Poissons Ratio (x) = 0.41624 0.18994
# Poissons Ratio (y) = 0.41624 0.18994
# Poissons Ratio (z) = 0.19460 0.19460
#
# Static dielectric constant tensor:
#      x y z
#    x 1.677940 0.000000 0.000000 
#    y 0.000000 1.677940 0.000000 
#    z 0.000000 0.000000 1.714090 
# 
# From -- ./inp_files/1000.got.cif
#   From: 2010.05.17/outbox.cif.g08.bks.cpg/sg189_1_cif.got.tgz:1000.got - 2010.05.20 12:14:34.
