data_PCOD9586158
_publ_section_title
;
Structure prediction by ZEFSAII (Michael W. Deem and Ramdas Pophale) SiO2 
 PCOD9586158
Probable space group: P -6 2 M
;
_chemical_formula_sum "Si O2"
_cell_formula_units_Z 78
_cell_length_a 23.698104
_cell_length_b 23.698104
_cell_length_c 10.274397
_cell_angle_alpha 90.000000
_cell_angle_beta 90.000000
_cell_angle_gamma 120.000000
_cell_volume 4997.055541
_symmetry_space_group_name_H-M "P -6 2 M"
_symmetry_group_IT_number 189
_symmetry_cell_setting 'hexagonal'
loop_
_space_group_symop_operation_xyz
x,y,z
-x+y,-x,-z
-y,x-y,z
x,y,-z
-x+y,-x,z
-y,x-y,-z
x-y,-y,-z
-x,-x+y,-z
y,x,-z
y,x,z
x-y,-y,z
-x,-x+y,z
loop_
_atom_site_type_symbol
_atom_site_label
_atom_site_fract_x
_atom_site_fract_y
_atom_site_fract_z
Si Si1 0.345723 0.143633 0.345135
Si Si2 0.284939 0.704249 0.500000
Si Si3 0.332557 0.466354 0.150116
Si Si4 0.000000 0.403232 0.154483
Si Si5 0.729479 0.075542 0.654008
Si Si6 0.537996 0.132213 0.154457
Si Si7 0.000000 0.295803 0.657394
Si Si8 0.506931 0.735087 0.745695
O O1 0.353921 0.144902 0.500000
O O2 0.321815 0.194942 0.315278
O O3 0.418465 0.174129 0.287519
O O4 0.299474 0.068263 0.309541
O O5 0.364276 0.736583 0.500000
O O6 0.261476 0.728126 0.623189
O O7 0.310803 0.406762 0.249692
O O8 0.399276 0.528031 0.198727
O O9 0.277059 0.486913 0.155505
O O10 0.339946 0.450402 0.000000
O O11 0.064292 0.472363 0.178128
O O12 0.000000 0.351894 0.255165
O O13 0.000000 0.386291 0.000000
O O14 0.718958 0.084566 0.500000
O O15 0.706445 0.000000 0.671878
O O16 0.529850 0.190603 0.209582
O O17 0.545598 0.141910 0.000000
O O18 0.000000 0.306940 0.500000
#
# Coordination Sequence:
#
# PCOD9586158 Si02
#       8
#    12   6  12   6  12  12   6  12
#     4   9  17  30  51  74 100 126 153 198 242 287
#     4  10  22  32  46  69  93 129 170 220 271 304
#     4  10  22  35  52  72  94 129 169 215 259 301
#     4  10  20  34  50  68  94 128 160 197 246 308
#     4   9  19  36  55  75 100 131 165 202 247 298
#     4  10  21  35  50  66  92 127 165 207 256 309
#     4  10  18  32  50  78 102 124 158 195 242 292
#     4  11  18  34  50  67  95 125 168 210 259 310
#
# _framework density 15.609190999999999
#
# number of rings (size 3 to 8) (size 9 to 14) (size 15 to 20)
#    0.154    2.000    2.308    1.385    2.154    0.308 
#    2.308    0.000    0.000    0.000    0.000    0.000 
#    0.769    0.000    2.308    0.000    0.000    0.000 
#
# Total GULP energy -434380.561009 kJ/mol
# GULP energy per Si atom -5568.981551 kJ/mol
# Density = 1.557366 g / cm^3
# Si number density = 15.609191 Si / 1000 Ang^3
#
#
#
# Elastic Constant Matrix: (Units=GPa)
#
#
# Indices 1 2 3 4 5 6 
#
# 1 86.9644 55.5632 33.5967 0.0000 0.0000 0.0000
# 2 55.5632 86.9644 33.5967 0.0000 0.0000 0.0000
# 3 33.5967 33.5967 41.4176 0.0000 0.0000 0.0000
# 4 0.0000 0.0000 0.0000 15.5797 0.0000 0.0000
# 5 0.0000 0.0000 0.0000 0.0000 15.5797 0.0000
# 6 0.0000 0.0000 0.0000 0.0000 0.0000 15.7006
#
#
#
# Elastic Compliance Matrix: (Units=1/GPa)
#
#
# Indices 1 2 3 4 5 6 
#
# 1 0.021603 -0.010243 -0.009215 0.000000 0.000000 0.000000
# 2 -0.010243 0.021603 -0.009215 0.000000 0.000000 0.000000
# 3 -0.009215 -0.009215 0.039095 0.000000 0.000000 0.000000
# 4 0.000000 0.000000 0.000000 0.064186 0.000000 0.000000
# 5 0.000000 0.000000 0.000000 0.000000 0.064186 0.000000
# 6 0.000000 0.000000 0.000000 0.000000 0.000000 0.063692
#
#
# Mechanical properties :
#
#
# Convention : Reuss Voigt Hill
#
# Bulk Modulus (GPa) = 40.07290 51.20663 45.63977
# Shear Modulus (GPa) = 14.70453 15.54464 15.12458
#
# Velocity S-wave (km/s) = 3.07260 3.15916 3.11618
# Velocity P-wave (km/s) = 6.19001 6.79586 6.50000
#
# Compressibility (1/GPa) = 0.02495452
#
# Stress axis : x y z
#
# Youngs Moduli (GPa) = 46.28914 46.28914 25.57871
#
# Poissons Ratio (x) = 0.47412 0.23572
# Poissons Ratio (y) = 0.47412 0.23572
# Poissons Ratio (z) = 0.42658 0.42658
#
# Static dielectric constant tensor:
#      x y z
#    x 1.523010 0.000000 0.000000 
#    y 0.000000 1.523010 0.000000 
#    z 0.000000 0.000000 1.524170 
# 
# From -- ./inp_files/1454.got.cif
#   From: 2010.05.17/outbox.cif.g08.bks.cpg/sg189_1_cif.got.tgz:1454.got - 2010.05.20 12:14:34.
