data_PCOD9586999
_publ_section_title
;
Structure prediction by ZEFSAII (Michael W. Deem and Ramdas Pophale) SiO2 
 PCOD9586999
Probable space group: P -6 2 C
;
_chemical_formula_sum "Si O2"
_cell_formula_units_Z 40
_cell_length_a 11.409408
_cell_length_b 11.409408
_cell_length_c 15.147621
_cell_angle_alpha 90.000000
_cell_angle_beta 90.000000
_cell_angle_gamma 120.000000
_cell_volume 1707.659520
_symmetry_space_group_name_H-M "P -6 2 C"
_symmetry_group_IT_number 190
_symmetry_cell_setting 'hexagonal'
loop_
_space_group_symop_operation_xyz
x,y,z
-x+y,-x,1/2-z
-y,x-y,z
x,y,1/2-z
-x+y,-x,z
-y,x-y,1/2-z
x-y,-y,-z
-x,-x+y,-z
y,x,-z
y,x,1/2+z
x-y,-y,1/2+z
-x,-x+y,1/2+z
loop_
_atom_site_type_symbol
_atom_site_label
_atom_site_fract_x
_atom_site_fract_y
_atom_site_fract_z
Si Si1 0.841007 0.697127 0.100177
Si Si2 0.454590 0.054190 0.651348
Si Si3 0.387418 0.272057 0.595369
Si Si4 0.000000 0.000000 0.605418
O O1 0.685876 0.604579 0.127013
O O2 0.971209 0.693273 0.136228
O O3 0.882791 0.850363 0.127821
O O4 0.855583 0.669264 0.996284
O O5 0.495824 0.039786 0.750000
O O6 0.425391 0.177979 0.650665
O O7 0.579274 0.096391 0.585153
O O8 0.000000 0.000000 0.500000
#
# Coordination Sequence:
#
# PCOD9586999 Si02
#       4
#    12  12  12   4
#     4  11  24  43  76 105 137 184 249 300 356 437
#     4  12  26  46  71 106 150 191 237 300 375 436
#     4  11  25  44  73 102 142 189 243 294 357 436
#     4  12  15  42  73 110 130 162 235 311 349 414
#
# _framework density 23.423873
#
# number of rings (size 3 to 8) (size 9 to 14) (size 15 to 20)
#    0.000    0.600    6.000    2.400    8.400    2.400 
#    1.800    0.000    0.000    0.000    0.000    0.000 
#    0.000    0.000    0.000    0.000    0.000    0.000 
#
# Total GULP energy -223130.761658 kJ/mol
# GULP energy per Si atom -5578.269041 kJ/mol
# Density = 2.337056 g / cm^3
# Si number density = 23.423873 Si / 1000 Ang^3
#
#
#
# Elastic Constant Matrix: (Units=GPa)
#
#
# Indices 1 2 3 4 5 6 
#
# 1 128.0059 36.2253 17.8349 0.0000 0.0000 0.0000
# 2 36.2253 128.0059 17.8349 0.0000 0.0000 0.0000
# 3 17.8349 17.8349 72.7260 0.0000 0.0000 0.0000
# 4 0.0000 0.0000 0.0000 16.9460 0.0000 0.0000
# 5 0.0000 0.0000 0.0000 0.0000 16.9460 0.0000
# 6 0.0000 0.0000 0.0000 0.0000 0.0000 45.8903
#
#
#
# Elastic Compliance Matrix: (Units=1/GPa)
#
#
# Indices 1 2 3 4 5 6 
#
# 1 0.008664 -0.002232 -0.001577 0.000000 0.000000 0.000000
# 2 -0.002232 0.008664 -0.001577 0.000000 0.000000 0.000000
# 3 -0.001577 -0.001577 0.014524 0.000000 0.000000 0.000000
# 4 0.000000 0.000000 0.000000 0.059011 0.000000 0.000000
# 5 0.000000 0.000000 0.000000 0.000000 0.059011 0.000000
# 6 0.000000 0.000000 0.000000 0.000000 0.000000 0.021791
#
#
# Mechanical properties :
#
#
# Convention : Reuss Voigt Hill
#
# Bulk Modulus (GPa) = 47.44290 52.50310 49.97300
# Shear Modulus (GPa) = 26.39036 33.07929 29.73482
#
# Velocity S-wave (km/s) = 3.36019 3.76201 3.56676
# Velocity P-wave (km/s) = 5.94580 6.42910 6.19217
#
# Compressibility (1/GPa) = 0.02107797
#
# Stress axis : x y z
#
# Youngs Moduli (GPa) = 115.42616 115.42616 68.85242
#
# Poissons Ratio (x) = 0.25763 0.10860
# Poissons Ratio (y) = 0.25763 0.10860
# Poissons Ratio (z) = 0.18205 0.18205
#
# Static dielectric constant tensor:
#      x y z
#    x 1.920710 0.000000 0.000000 
#    y 0.000000 1.920710 0.000000 
#    z 0.000000 0.000000 1.924710 
# 
# From -- ./inp_files/3422.got.cif
#   From: 2010.05.17/outbox.cif.g08.bks.cpg/sg190_2_cif.got.tgz:3422.got - 2010.05.20 12:16:56.
