data_PCOD9586045
_publ_section_title
;
Structure prediction by ZEFSAII (Michael W. Deem and Ramdas Pophale) SiO2 
 PCOD9586045
Probable space group: P -6 C 2
;
_chemical_formula_sum "Si O2"
_cell_formula_units_Z 72
_cell_length_a 15.517228
_cell_length_b 15.517228
_cell_length_c 16.234595
_cell_angle_alpha 90.000000
_cell_angle_beta 90.000000
_cell_angle_gamma 120.000000
_cell_volume 3385.325039
_symmetry_space_group_name_H-M "P -6 C 2"
_symmetry_group_IT_number 188
_symmetry_cell_setting 'hexagonal'
loop_
_space_group_symop_operation_xyz
x,y,z
-x+y,-x,1/2-z
-y,x-y,z
x,y,1/2-z
-x+y,-x,z
-y,x-y,1/2-z
-y,-x,-z
-x+y,y,-z
x,x-y,-z
-x+y,y,1/2+z
x,x-y,1/2+z
-y,-x,1/2+z
loop_
_atom_site_type_symbol
_atom_site_label
_atom_site_fract_x
_atom_site_fract_y
_atom_site_fract_z
Si Si1 0.250248 0.457737 0.596796
Si Si2 0.791325 0.043819 0.561055
Si Si3 0.888714 0.223885 0.657196
Si Si4 0.463216 0.585615 0.653552
Si Si5 0.617955 0.046404 0.463720
Si Si6 0.760080 0.896765 0.343994
O O1 0.224170 0.448339 0.500000
O O2 0.364832 0.497501 0.613643
O O3 0.223592 0.535991 0.636793
O O4 0.181871 0.356088 0.644678
O O5 0.878885 0.121116 0.500000
O O6 0.806435 0.110389 0.641492
O O7 0.683958 0.017274 0.523589
O O8 0.805193 0.952208 0.589339
O O9 0.890778 0.256583 0.750000
O O10 0.872258 0.293319 0.593278
O O11 0.994652 0.227271 0.642140
O O12 0.471301 0.571022 0.750000
O O13 0.555289 0.596990 0.600731
O O14 0.535810 0.071620 0.500000
O O15 0.792931 0.895420 0.250000
#
# Coordination Sequence:
#
# PCOD9586045 Si02
#       6
#    12  12  12  12  12  12
#     4  12  24  37  58  87 129 176 219 264 309 368
#     4  10  23  40  65  94 124 164 216 270 328 391
#     4  10  22  42  67  92 129 170 213 266 327 388
#     4  12  23  37  55  84 126 173 221 258 308 368
#     4  11  22  39  62  92 124 164 210 262 320 383
#     4  11  22  39  63  92 129 170 214 262 319 380
#
# _framework density 21.268267999999999
#
# number of rings (size 3 to 8) (size 9 to 14) (size 15 to 20)
#    0.000    1.000    1.667    6.333    2.333    0.000 
#    1.000    2.500    0.000    9.000    0.000    0.000 
#    0.000    0.000    0.000    0.000    0.000    0.000 
#
# Total GULP energy -401922.191665 kJ/mol
# GULP energy per Si atom -5582.252662 kJ/mol
# Density = 2.121986 g / cm^3
# Si number density = 21.268268 Si / 1000 Ang^3
#
#
#
# Elastic Constant Matrix: (Units=GPa)
#
#
# Indices 1 2 3 4 5 6 
#
# 1 52.8838 19.8557 44.0599 -0.0001 0.0000 0.0000
# 2 19.8557 52.8838 44.0599 0.0001 0.0000 0.0000
# 3 44.0599 44.0599 120.5934 0.0000 0.0000 0.0000
# 4 -0.0001 0.0001 0.0000 23.2365 0.0000 0.0000
# 5 0.0000 0.0000 0.0000 0.0000 23.2365 -0.0001
# 6 0.0000 0.0000 0.0000 0.0000 -0.0001 16.5140
#
#
#
# Elastic Compliance Matrix: (Units=1/GPa)
#
#
# Indices 1 2 3 4 5 6 
#
# 1 0.027471 -0.002806 -0.009011 0.000000 0.000000 0.000000
# 2 -0.002806 0.027471 -0.009011 0.000000 0.000000 0.000000
# 3 -0.009011 -0.009011 0.014877 0.000000 0.000000 0.000000
# 4 0.000000 0.000000 0.000000 0.043036 0.000000 0.000000
# 5 0.000000 0.000000 0.000000 0.000000 0.043036 0.000000
# 6 0.000000 0.000000 0.000000 0.000000 0.000000 0.060555
#
#
# Mechanical properties :
#
#
# Convention : Reuss Voigt Hill
#
# Bulk Modulus (GPa) = 35.51067 49.14576 42.32821
# Shear Modulus (GPa) = 18.69228 20.48978 19.59103
#
# Velocity S-wave (km/s) = 2.96781 3.10723 3.03832
# Velocity P-wave (km/s) = 5.33635 6.00257 5.67924
#
# Compressibility (1/GPa) = 0.02816055
#
# Stress axis : x y z
#
# Youngs Moduli (GPa) = 36.40215 36.40215 67.21722
#
# Poissons Ratio (x) = 0.10216 0.60572
# Poissons Ratio (y) = 0.10216 0.60572
# Poissons Ratio (z) = 0.32804 0.32804
#
# Static dielectric constant tensor:
#      x y z
#    x 1.809190 0.000000 0.000000 
#    y 0.000000 1.809190 0.000000 
#    z 0.000000 0.000000 1.822820 
# 
# From -- ./inp_files/3193.got.cif
#   From: 2010.05.17/outbox.cif.g08.bks.cpg/sg188_2_cif.got.tgz:3193.got - 2010.05.20 12:11:46.
