data_PCOD9586457
_publ_section_title
;
Structure prediction by ZEFSAII (Michael W. Deem and Ramdas Pophale) SiO2 
 PCOD9586457
Probable space group: P -6 2 M
;
_chemical_formula_sum "Si O2"
_cell_formula_units_Z 70
_cell_length_a 15.078914
_cell_length_b 15.078914
_cell_length_c 18.238738
_cell_angle_alpha 90.000000
_cell_angle_beta 90.000000
_cell_angle_gamma 120.000000
_cell_volume 3591.414610
_symmetry_space_group_name_H-M "P -6 2 M"
_symmetry_group_IT_number 189
_symmetry_cell_setting 'hexagonal'
loop_
_space_group_symop_operation_xyz
x,y,z
-x+y,-x,-z
-y,x-y,z
x,y,-z
-x+y,-x,z
-y,x-y,-z
x-y,-y,-z
-x,-x+y,-z
y,x,-z
y,x,z
x-y,-y,z
-x,-x+y,z
loop_
_atom_site_type_symbol
_atom_site_label
_atom_site_fract_x
_atom_site_fract_y
_atom_site_fract_z
Si Si1 0.876661 0.596251 0.416973
Si Si2 0.561613 0.440606 0.318065
Si Si3 0.356762 0.122657 0.299066
Si Si4 0.883142 0.473599 0.850776
Si Si5 0.880509 0.676447 0.854682
Si Si6 0.333334 0.666667 0.912765
Si Si7 0.119415 0.887202 0.000000
O O1 0.838481 0.586806 0.500000
O O2 0.839154 0.485412 0.379502
O O3 0.844646 0.660266 0.363735
O O4 0.000000 0.654689 0.418734
O O5 0.507203 0.507203 0.332213
O O6 0.679586 0.524434 0.310845
O O7 0.527937 0.395255 0.236812
O O8 0.340478 0.157424 0.219307
O O9 0.287801 0.000000 0.304935
O O10 0.881260 0.573801 0.877375
O O11 0.783203 0.376570 0.883990
O O12 0.000000 0.495937 0.862866
O O13 0.837727 0.707894 0.924316
O O14 0.000000 0.761177 0.840515
O O15 0.333334 0.666668 0.000000
O O16 0.000000 0.803013 0.000000
O O17 0.136411 0.000000 0.000000
#
# Coordination Sequence:
#
# PCOD9586457 Si02
#       7
#    12  12  12  12  12   4   6
#     4  10  21  39  61  85 118 158 195 235 294 365
#     4   9  19  37  60  82 108 149 192 240 295 345
#     4  11  21  35  61  92 121 152 198 250 297 357
#     4  10  21  40  63  85 117 159 207 254 302 366
#     4  10  20  37  62  86 118 165 209 250 308 371
#     4  12  27  39  60  93 124 164 208 249 315 378
#     4  10  21  36  58  88 122 160 207 268 324 368
#
# _framework density 19.490928
#
# number of rings (size 3 to 8) (size 9 to 14) (size 15 to 20)
#    0.000    1.886    1.714    2.143    1.200    1.371 
#    1.029    2.571    0.000    3.771    0.000    0.000 
#    0.000    0.000    0.000    0.514    0.000    0.000 
#
# Total GULP energy -390253.120226 kJ/mol
# GULP energy per Si atom -5575.044575 kJ/mol
# Density = 1.944657 g / cm^3
# Si number density = 19.490928 Si / 1000 Ang^3
#
#
#
# Elastic Constant Matrix: (Units=GPa)
#
#
# Indices 1 2 3 4 5 6 
#
# 1 69.2480 16.6992 44.9572 0.0000 0.0000 -0.0001
# 2 16.6992 69.2475 44.9569 0.0000 0.0000 -0.0001
# 3 44.9572 44.9569 121.2721 0.0000 0.0000 -0.0001
# 4 0.0000 0.0000 0.0000 16.2855 0.0000 0.0000
# 5 0.0000 0.0000 0.0000 0.0000 16.2855 0.0000
# 6 -0.0001 -0.0001 -0.0001 0.0000 0.0000 26.2743
#
#
#
# Elastic Compliance Matrix: (Units=1/GPa)
#
#
# Indices 1 2 3 4 5 6 
#
# 1 0.019018 -0.000012 -0.007046 0.000000 0.000000 0.000000
# 2 -0.000012 0.019018 -0.007046 0.000000 0.000000 0.000000
# 3 -0.007046 -0.007046 0.013470 0.000000 0.000000 0.000000
# 4 0.000000 0.000000 0.000000 0.061404 0.000000 0.000000
# 5 0.000000 0.000000 0.000000 0.000000 0.061404 0.000000
# 6 0.000000 0.000000 0.000000 0.000000 0.000000 0.038060
#
#
# Mechanical properties :
#
#
# Convention : Reuss Voigt Hill
#
# Bulk Modulus (GPa) = 42.92055 52.55491 47.73773
# Shear Modulus (GPa) = 20.13305 21.97935 21.05620
#
# Velocity S-wave (km/s) = 3.21743 3.36172 3.29037
# Velocity P-wave (km/s) = 5.98925 6.48772 6.24346
#
# Compressibility (1/GPa) = 0.02329886
#
# Stress axis : x y z
#
# Youngs Moduli (GPa) = 52.58171 52.58146 74.23994
#
# Poissons Ratio (x) = 0.00063 0.52308
# Poissons Ratio (y) = 0.00063 0.52308
# Poissons Ratio (z) = 0.37048 0.37048
#
# Static dielectric constant tensor:
#      x y z
#    x 1.718100 0.000000 0.000000 
#    y 0.000000 1.718100 0.000000 
#    z 0.000000 0.000000 1.646150 
# 
# From -- ./inp_files/3153.got.cif
#   From: 2010.05.17/outbox.cif.g08.bks.cpg/sg189_2_cif.got.tgz:3153.got - 2010.05.20 12:14:34.
