data_PCOD9586194
_publ_section_title
;
Structure prediction by ZEFSAII (Michael W. Deem and Ramdas Pophale) SiO2 
 PCOD9586194
Probable space group: P -6 2 M
;
_chemical_formula_sum "Si O2"
_cell_formula_units_Z 72
_cell_length_a 24.259008
_cell_length_b 24.259008
_cell_length_c 9.184647
_cell_angle_alpha 90.000000
_cell_angle_beta 90.000000
_cell_angle_gamma 120.000000
_cell_volume 4681.005771
_symmetry_space_group_name_H-M "P -6 2 M"
_symmetry_group_IT_number 189
_symmetry_cell_setting 'hexagonal'
loop_
_space_group_symop_operation_xyz
x,y,z
-x+y,-x,-z
-y,x-y,z
x,y,-z
-x+y,-x,z
-y,x-y,-z
x-y,-y,-z
-x,-x+y,-z
y,x,-z
y,x,z
x-y,-y,z
-x,-x+y,z
loop_
_atom_site_type_symbol
_atom_site_label
_atom_site_fract_x
_atom_site_fract_y
_atom_site_fract_z
Si Si1 0.377663 0.514325 0.674250
Si Si2 0.073910 0.363016 0.173837
Si Si3 0.185977 0.364072 0.666432
Si Si4 0.629496 0.486716 0.172349
Si Si5 0.303225 0.378420 0.171775
Si Si6 0.737119 0.481542 0.334791
O O1 0.379604 0.508143 0.500000
O O2 0.445059 0.564667 0.740492
O O3 0.348645 0.445635 0.749185
O O4 0.327816 0.539476 0.704576
O O5 0.119013 0.342915 0.257508
O O6 0.100041 0.437878 0.203719
O O7 0.000000 0.321698 0.213357
O O8 0.080455 0.358019 0.000000
O O9 0.179204 0.342214 0.500000
O O10 0.233703 0.349708 0.757061
O O11 0.221377 0.441412 0.663489
O O12 0.679896 0.465926 0.226748
O O13 0.618741 0.477173 0.000000
O O14 0.332968 0.332968 0.189757
O O15 0.299953 0.389868 0.000000
O O16 0.713263 0.460524 0.500000
#
# Coordination Sequence:
#
# PCOD9586194 Si02
#       6
#    12  12  12  12  12  12
#     4  10  20  33  48  65  88 118 150 191 242 289
#     4   9  18  32  49  69  94 125 158 191 230 277
#     4   9  17  30  49  70  92 118 148 185 225 268
#     4  10  19  30  46  66  88 115 150 195 241 285
#     4  10  20  33  50  71  94 122 155 189 228 277
#     4   8  16  31  46  59  78 109 146 183 230 284
#
# _framework density 15.381309
#
# number of rings (size 3 to 8) (size 9 to 14) (size 15 to 20)
#    0.000    2.667    0.000    3.000    0.000    7.667 
#    1.000    1.667    0.000    0.000    0.000    0.000 
#    0.000    0.000    0.000    0.500    0.000    9.667 
#
# Total GULP energy -401330.293660 kJ/mol
# GULP energy per Si atom -5574.031856 kJ/mol
# Density = 1.534630 g / cm^3
# Si number density = 15.381309 Si / 1000 Ang^3
#
#
#
# Elastic Constant Matrix: (Units=GPa)
#
#
# Indices 1 2 3 4 5 6 
#
# 1 69.0956 45.6570 59.3485 0.0000 0.0000 0.0000
# 2 45.6570 69.0956 59.3485 0.0000 0.0000 0.0000
# 3 59.3485 59.3485 95.4347 0.0000 0.0000 0.0000
# 4 0.0000 0.0000 0.0000 17.1185 0.0000 0.0000
# 5 0.0000 0.0000 0.0000 0.0000 17.1185 0.0000
# 6 0.0000 0.0000 0.0000 0.0000 0.0000 11.7193
#
#
#
# Elastic Compliance Matrix: (Units=1/GPa)
#
#
# Indices 1 2 3 4 5 6 
#
# 1 0.033546 -0.009119 -0.015191 0.000000 0.000000 0.000000
# 2 -0.009119 0.033546 -0.015191 0.000000 0.000000 0.000000
# 3 -0.015191 -0.015191 0.029372 0.000000 0.000000 0.000000
# 4 0.000000 0.000000 0.000000 0.058416 0.000000 0.000000
# 5 0.000000 0.000000 0.000000 0.000000 0.058416 0.000000
# 6 0.000000 0.000000 0.000000 0.000000 0.000000 0.085329
#
#
# Mechanical properties :
#
#
# Convention : Reuss Voigt Hill
#
# Bulk Modulus (GPa) = 57.26230 62.48155 59.87192
# Shear Modulus (GPa) = 13.03960 13.80939 13.42450
#
# Velocity S-wave (km/s) = 2.91478 2.99959 2.95749
# Velocity P-wave (km/s) = 6.97404 7.25993 7.11842
#
# Compressibility (1/GPa) = 0.01746350
#
# Stress axis : x y z
#
# Youngs Moduli (GPa) = 29.80981 29.80981 34.04616
#
# Poissons Ratio (x) = 0.27183 0.51719
# Poissons Ratio (y) = 0.27183 0.51719
# Poissons Ratio (z) = 0.45283 0.45283
#
# Static dielectric constant tensor:
#      x y z
#    x 1.502870 0.000000 0.000000 
#    y 0.000000 1.502870 0.000000 
#    z 0.000000 0.000000 1.517430 
# 
# From -- ./inp_files/1213.got.cif
#   From: 2010.05.17/outbox.cif.g08.bks.cpg/sg189_1_cif.got.tgz:1213.got - 2010.05.20 12:14:34.
