data_PCOD9586228
_publ_section_title
;
Structure prediction by ZEFSAII (Michael W. Deem and Ramdas Pophale) SiO2 
 PCOD9586228
Probable space group: P -6 2 M
;
_chemical_formula_sum "Si O2"
_cell_formula_units_Z 64
_cell_length_a 13.741826
_cell_length_b 13.741826
_cell_length_c 20.211315
_cell_angle_alpha 90.000000
_cell_angle_beta 90.000000
_cell_angle_gamma 120.000000
_cell_volume 3305.324424
_symmetry_space_group_name_H-M "P -6 2 M"
_symmetry_group_IT_number 189
_symmetry_cell_setting 'hexagonal'
loop_
_space_group_symop_operation_xyz
x,y,z
-x+y,-x,-z
-y,x-y,z
x,y,-z
-x+y,-x,z
-y,x-y,-z
x-y,-y,-z
-x,-x+y,-z
y,x,-z
y,x,z
x-y,-y,z
-x,-x+y,z
loop_
_atom_site_type_symbol
_atom_site_label
_atom_site_fract_x
_atom_site_fract_y
_atom_site_fract_z
Si Si1 0.666667 0.333333 0.921399
Si Si2 0.202341 0.328808 0.337790
Si Si3 0.126089 0.255886 0.194729
Si Si4 0.133244 0.464499 0.426421
Si Si5 0.445458 0.867951 0.699244
Si Si6 0.516077 0.651231 0.837343
O O1 0.643049 0.429388 0.892504
O O2 0.666667 0.333334 0.000000
O O3 0.255481 0.255481 0.363319
O O4 0.126056 0.268300 0.274556
O O5 0.149238 0.365616 0.395536
O O6 0.304286 0.442052 0.305879
O O7 0.214516 0.214516 0.179249
O O8 0.152731 0.376133 0.166466
O O9 0.000000 0.165221 0.173544
O O10 0.182128 0.498304 0.500000
O O11 0.179158 0.557661 0.368948
O O12 0.000000 0.417533 0.431862
O O13 0.377915 0.826889 0.767253
O O14 0.484117 0.000000 0.699351
O O15 0.567140 0.567140 0.845553
#
# Coordination Sequence:
#
# PCOD9586228 Si02
#       6
#     4  12  12  12  12  12
#     4  12  27  42  63  99 130 161 202 240 294 369
#     4  10  19  31  51  75 104 142 190 244 299 358
#     4  10  19  34  59  91 122 155 200 252 302 351
#     4  10  20  34  50  70 104 146 188 243 304 355
#     4   9  18  34  54  75 101 143 193 236 286 345
#     4  10  21  39  63  88 122 162 200 247 299 354
#
# _framework density 19.362698999999999
#
# number of rings (size 3 to 8) (size 9 to 14) (size 15 to 20)
#    0.000    2.062    1.875    1.875    0.000    3.750 
#    1.125    1.875    0.000    0.375    0.000    0.000 
#    0.000    1.500    0.000    0.000    0.000    0.000 
#
# Total GULP energy -357046.607858 kJ/mol
# GULP energy per Si atom -5578.853248 kJ/mol
# Density = 1.931863 g / cm^3
# Si number density = 19.362699 Si / 1000 Ang^3
#
#
#
# Elastic Constant Matrix: (Units=GPa)
#
#
# Indices 1 2 3 4 5 6 
#
# 1 75.7077 30.3803 39.2966 0.0000 0.0000 0.0000
# 2 30.3803 75.7078 39.2968 0.0000 0.0000 0.0000
# 3 39.2966 39.2968 124.5982 0.0000 0.0000 0.0000
# 4 0.0000 0.0000 0.0000 17.2832 0.0000 0.0000
# 5 0.0000 0.0000 0.0000 0.0000 17.2834 0.0000
# 6 0.0000 0.0000 0.0000 0.0000 0.0000 22.6637
#
#
#
# Elastic Compliance Matrix: (Units=1/GPa)
#
#
# Indices 1 2 3 4 5 6 
#
# 1 0.017181 -0.004881 -0.003879 0.000000 0.000000 0.000000
# 2 -0.004881 0.017181 -0.003879 0.000000 0.000000 0.000000
# 3 -0.003879 -0.003879 0.010473 0.000000 0.000000 0.000000
# 4 0.000000 0.000000 0.000000 0.057860 0.000000 0.000000
# 5 0.000000 0.000000 0.000000 0.000000 0.057859 0.000000
# 6 0.000000 0.000000 0.000000 0.000000 0.000000 0.044123
#
#
# Mechanical properties :
#
#
# Convention : Reuss Voigt Hill
#
# Bulk Modulus (GPa) = 51.13599 54.88458 53.01028
# Shear Modulus (GPa) = 21.14400 22.58207 21.86303
#
# Velocity S-wave (km/s) = 3.30812 3.41877 3.36390
# Velocity P-wave (km/s) = 6.40768 6.63257 6.52110
#
# Compressibility (1/GPa) = 0.01955570
#
# Stress axis : x y z
#
# Youngs Moduli (GPa) = 58.20432 58.20429 95.48596
#
# Poissons Ratio (x) = 0.28409 0.37041
# Poissons Ratio (y) = 0.28409 0.37042
# Poissons Ratio (z) = 0.22579 0.22579
#
# Static dielectric constant tensor:
#      x y z
#    x 1.725560 0.000000 0.000000 
#    y 0.000000 1.725560 0.000000 
#    z 0.000000 0.000000 1.652220 
# 
# From -- ./inp_files/3056.got.cif
#   From: 2010.05.17/outbox.cif.g08.bks.cpg/sg189_2_cif.got.tgz:3056.got - 2010.05.20 12:14:34.
