data_PCOD9586308
_publ_section_title
;
Structure prediction by ZEFSAII (Michael W. Deem and Ramdas Pophale) SiO2 
 PCOD9586308
Probable space group: P -6 2 M
;
_chemical_formula_sum "Si O2"
_cell_formula_units_Z 60
_cell_length_a 20.772737
_cell_length_b 20.772737
_cell_length_c 8.306464
_cell_angle_alpha 90.000000
_cell_angle_beta 90.000000
_cell_angle_gamma 120.000000
_cell_volume 3104.089710
_symmetry_space_group_name_H-M "P -6 2 M"
_symmetry_group_IT_number 189
_symmetry_cell_setting 'hexagonal'
loop_
_space_group_symop_operation_xyz
x,y,z
-x+y,-x,-z
-y,x-y,z
x,y,-z
-x+y,-x,z
-y,x-y,-z
x-y,-y,-z
-x,-x+y,-z
y,x,-z
y,x,z
x-y,-y,z
-x,-x+y,z
loop_
_atom_site_type_symbol
_atom_site_label
_atom_site_fract_x
_atom_site_fract_y
_atom_site_fract_z
Si Si1 0.168714 0.417257 0.694080
Si Si2 0.915429 0.163462 0.808033
Si Si3 0.857827 0.525231 0.695207
Si Si4 0.000000 0.818323 0.687160
Si Si5 0.582597 0.496966 0.303478
Si Si6 0.000000 0.675106 0.189095
O O1 0.167155 0.417489 0.500000
O O2 0.135392 0.332009 0.745676
O O3 0.254722 0.467753 0.744187
O O4 0.119320 0.452284 0.752886
O O5 0.880775 0.077373 0.761698
O O6 0.000000 0.212593 0.746810
O O7 0.916393 0.168430 0.000000
O O8 0.862208 0.529018 0.500000
O O9 0.865528 0.454788 0.744878
O O10 0.928447 0.598043 0.764611
O O11 0.000000 0.833708 0.500000
O O12 0.000000 0.741354 0.713554
O O13 0.583638 0.498415 0.500000
O O14 0.531449 0.531449 0.252161
O O15 0.000000 0.690809 0.000000
#
# Coordination Sequence:
#
# PCOD9586308 Si02
#       6
#    12  12  12   6  12   6
#     4  10  20  34  57  85 113 153 199 243 287 339
#     4  11  24  41  61  87 120 155 190 237 296 351
#     4  10  19  34  56  82 114 149 190 238 287 337
#     4  12  24  40  64  90 116 149 194 241 288 348
#     4   9  17  31  52  78 111 147 187 236 285 330
#     4  12  22  34  58  88 116 143 184 237 294 350
#
# _framework density 19.329339000000001
#
# number of rings (size 3 to 8) (size 9 to 14) (size 15 to 20)
#    0.000    1.600    3.000    3.000    0.000    2.400 
#    1.800    1.000    0.000    0.000    0.000    0.000 
#    0.000    0.000    0.000    0.000    0.000    0.000 
#
# Total GULP energy -335020.880214 kJ/mol
# GULP energy per Si atom -5583.681337 kJ/mol
# Density = 1.928535 g / cm^3
# Si number density = 19.329339 Si / 1000 Ang^3
#
#
#
# Elastic Constant Matrix: (Units=GPa)
#
#
# Indices 1 2 3 4 5 6 
#
# 1 124.8003 51.1620 10.1276 0.0000 0.0000 0.0000
# 2 51.1620 124.8003 10.1276 0.0000 0.0000 0.0000
# 3 10.1276 10.1276 10.5166 0.0000 0.0000 0.0000
# 4 0.0000 0.0000 0.0000 90.0878 0.0000 0.0000
# 5 0.0000 0.0000 0.0000 0.0000 90.0878 0.0000
# 6 0.0000 0.0000 0.0000 0.0000 0.0000 36.8192
#
#
#
# Elastic Compliance Matrix: (Units=1/GPa)
#
#
# Indices 1 2 3 4 5 6 
#
# 1 0.009986 -0.003594 -0.006155 0.000000 0.000000 0.000000
# 2 -0.003594 0.009986 -0.006155 0.000000 0.000000 0.000000
# 3 -0.006155 -0.006155 0.106942 0.000000 0.000000 0.000000
# 4 0.000000 0.000000 0.000000 0.011100 0.000000 0.000000
# 5 0.000000 0.000000 0.000000 0.000000 0.011100 0.000000
# 6 0.000000 0.000000 0.000000 0.000000 0.000000 0.027160
#
#
# Mechanical properties :
#
#
# Convention : Reuss Voigt Hill
#
# Bulk Modulus (GPa) = 10.51469 44.77240 27.64354
# Shear Modulus (GPa) = 20.85204 55.97896 38.41550
#
# Velocity S-wave (km/s) = 3.28804 5.38735 4.46288
# Velocity P-wave (km/s) = 4.45718 7.86837 6.39444
#
# Compressibility (1/GPa) = 0.09510505
#
# Stress axis : x y z
#
# Youngs Moduli (GPa) = 100.14299 100.14299 9.35082
#
# Poissons Ratio (x) = 0.35993 0.05756
# Poissons Ratio (y) = 0.35993 0.05756
# Poissons Ratio (z) = 0.61639 0.61639
#
# Static dielectric constant tensor:
#      x y z
#    x 1.667530 0.000000 0.000000 
#    y 0.000000 1.667530 0.000000 
#    z 0.000000 0.000000 1.663510 
# 
# From -- ./inp_files/913.got.cif
#   From: 2010.05.17/outbox.cif.g08.bks.cpg/sg189_1_cif.got.tgz:913.got - 2010.05.20 12:14:34.
