data_PCOD9586248
_publ_section_title
;
Structure prediction by ZEFSAII (Michael W. Deem and Ramdas Pophale) SiO2 
 PCOD9586248
Probable space group: P -6 2 M
;
_chemical_formula_sum "Si O2"
_cell_formula_units_Z 82
_cell_length_a 20.736333
_cell_length_b 20.736333
_cell_length_c 13.049604
_cell_angle_alpha 90.000000
_cell_angle_beta 90.000000
_cell_angle_gamma 120.000000
_cell_volume 4859.503302
_symmetry_space_group_name_H-M "P -6 2 M"
_symmetry_group_IT_number 189
_symmetry_cell_setting 'hexagonal'
loop_
_space_group_symop_operation_xyz
x,y,z
-x+y,-x,-z
-y,x-y,z
x,y,-z
-x+y,-x,z
-y,x-y,-z
x-y,-y,-z
-x,-x+y,-z
y,x,-z
y,x,z
x-y,-y,z
-x,-x+y,z
loop_
_atom_site_type_symbol
_atom_site_label
_atom_site_fract_x
_atom_site_fract_y
_atom_site_fract_z
Si Si1 0.462519 0.182445 0.381677
Si Si2 0.913344 0.762542 0.793911
Si Si3 0.294729 0.378761 0.879130
Si Si4 0.201235 0.676908 0.766830
Si Si5 0.085764 0.286367 0.617549
Si Si6 0.912028 0.455429 0.379437
Si Si7 0.333334 0.666668 0.124706
Si Si8 0.827757 0.911927 0.000000
O O1 0.479770 0.209754 0.500000
O O2 0.502081 0.250319 0.302787
O O3 0.373998 0.140348 0.367159
O O4 0.488018 0.121201 0.369534
O O5 0.910055 0.684587 0.816177
O O6 0.865324 0.757061 0.696714
O O7 0.882762 0.781376 0.896149
O O8 0.000000 0.823413 0.780257
O O9 0.363223 0.363223 0.861353
O O10 0.308616 0.458172 0.844300
O O11 0.277111 0.366421 0.000000
O O12 0.142394 0.612811 0.691083
O O13 0.256510 0.657364 0.828786
O O14 0.093755 0.268678 0.500000
O O15 0.000000 0.263446 0.632507
O O16 0.905598 0.470595 0.500000
O O17 0.000000 0.502858 0.352628
O O18 0.333334 0.666668 0.000000
O O19 0.893185 0.893185 0.000000
O O20 0.859272 0.000000 0.000000
#
# Coordination Sequence:
#
# PCOD9586248 Si02
#       8
#    12  12  12  12  12  12   4   6
#     4  10  20  35  56  82 112 145 184 224 275 334
#     4  10  19  33  53  78 110 141 177 227 277 330
#     4  10  20  36  58  81 107 142 182 228 282 334
#     4  12  21  39  59  83 111 152 187 233 282 332
#     4  10  20  35  55  78 107 144 184 223 269 329
#     4  10  21  37  58  87 119 148 185 233 283 338
#     4  12  27  42  58  83 112 153 201 243 277 323
#     4  10  19  32  52  78 108 140 180 230 284 336
#
# _framework density 16.874154000000001
#
# number of rings (size 3 to 8) (size 9 to 14) (size 15 to 20)
#    0.000    1.610    3.659    2.268    0.000    2.049 
#    0.000    0.000    0.000    0.293    0.000    2.049 
#    0.000    0.000    0.000    0.000    0.000    0.000 
#
# Total GULP energy -457328.866677 kJ/mol
# GULP energy per Si atom -5577.181301 kJ/mol
# Density = 1.683575 g / cm^3
# Si number density = 16.874154 Si / 1000 Ang^3
#
#
#
# Elastic Constant Matrix: (Units=GPa)
#
#
# Indices 1 2 3 4 5 6 
#
# 1 70.2079 18.9132 47.4283 0.0000 0.0000 0.0000
# 2 18.9132 70.2084 47.4286 0.0000 0.0000 0.0000
# 3 47.4283 47.4286 97.2265 0.0000 0.0001 0.0001
# 4 0.0000 0.0000 0.0000 27.6155 0.0000 0.0000
# 5 0.0000 0.0000 0.0001 0.0000 27.6154 0.0000
# 6 0.0000 0.0000 0.0001 0.0000 0.0000 25.6474
#
#
#
# Elastic Compliance Matrix: (Units=1/GPa)
#
#
# Indices 1 2 3 4 5 6 
#
# 1 0.021417 0.001921 -0.011384 0.000000 0.000000 0.000000
# 2 0.001921 0.021416 -0.011385 0.000000 0.000000 0.000000
# 3 -0.011384 -0.011385 0.021392 0.000000 0.000000 0.000000
# 4 0.000000 0.000000 0.000000 0.036211 0.000000 0.000000
# 5 0.000000 0.000000 0.000000 0.000000 0.036212 0.000000
# 6 0.000000 0.000000 0.000000 0.000000 0.000000 0.038990
#
#
# Mechanical properties :
#
#
# Convention : Reuss Voigt Hill
#
# Bulk Modulus (GPa) = 44.38545 51.68699 48.03622
# Shear Modulus (GPa) = 22.23764 24.43385 23.33575
#
# Velocity S-wave (km/s) = 3.63416 3.80939 3.72281
# Velocity P-wave (km/s) = 6.63102 7.07432 6.85625
#
# Compressibility (1/GPa) = 0.02252991
#
# Stress axis : x y z
#
# Youngs Moduli (GPa) = 46.69295 46.69314 46.74580
#
# Poissons Ratio (x) = -0.08971 0.53218
# Poissons Ratio (y) = -0.08971 0.53218
# Poissons Ratio (z) = 0.53158 0.53158
#
# Static dielectric constant tensor:
#      x y z
#    x 1.559160 0.000000 0.000000 
#    y 0.000000 1.559160 0.000000 
#    z 0.000000 0.000000 1.561410 
# 
# From -- ./inp_files/2169.got.cif
#   From: 2010.05.17/outbox.cif.g08.bks.cpg/sg189_2_cif.got.tgz:2169.got - 2010.05.20 12:14:34.
