data_PCOD9586446
_publ_section_title
;
Structure prediction by ZEFSAII (Michael W. Deem and Ramdas Pophale) SiO2 
 PCOD9586446
Probable space group: P -6 2 M
;
_chemical_formula_sum "Si O2"
_cell_formula_units_Z 84
_cell_length_a 14.803059
_cell_length_b 14.803059
_cell_length_c 24.311777
_cell_angle_alpha 90.000000
_cell_angle_beta 90.000000
_cell_angle_gamma 120.000000
_cell_volume 4613.709813
_symmetry_space_group_name_H-M "P -6 2 M"
_symmetry_group_IT_number 189
_symmetry_cell_setting 'hexagonal'
loop_
_space_group_symop_operation_xyz
x,y,z
-x+y,-x,-z
-y,x-y,z
x,y,-z
-x+y,-x,z
-y,x-y,-z
x-y,-y,-z
-x,-x+y,-z
y,x,-z
y,x,z
x-y,-y,z
-x,-x+y,z
loop_
_atom_site_type_symbol
_atom_site_label
_atom_site_fract_x
_atom_site_fract_y
_atom_site_fract_z
Si Si1 0.122251 0.879630 0.865832
Si Si2 0.532699 0.291118 0.437842
Si Si3 0.701127 0.123567 0.331400
Si Si4 0.564462 0.438831 0.760405
Si Si5 0.876228 0.223615 0.752153
Si Si6 0.402591 0.524487 0.881986
Si Si7 0.259068 0.818859 0.064760
O O1 0.160384 0.852924 0.808901
O O2 0.190226 0.867113 0.913243
O O3 0.000000 0.805377 0.873791
O O4 0.153132 0.000000 0.862510
O O5 0.591089 0.223440 0.432877
O O6 0.491080 0.278198 0.500000
O O7 0.455042 0.271549 0.388854
O O8 0.635002 0.159601 0.292593
O O9 0.803474 0.151165 0.296253
O O10 0.631779 0.000000 0.340056
O O11 0.493396 0.493396 0.762098
O O12 0.681526 0.534007 0.757558
O O13 0.542547 0.381254 0.818878
O O14 0.000000 0.276495 0.741475
O O15 0.436000 0.436000 0.883942
O O16 0.500140 0.631489 0.903431
O O17 0.303001 0.495978 0.918972
O O18 0.277205 0.832495 0.000000
#
# Coordination Sequence:
#
# PCOD9586446 Si02
#       7
#    12  12  12  12  12  12  12
#     4  11  23  41  62  84 112 149 192 238 288 343
#     4   8  17  34  52  74 112 158 195 225 268 325
#     4  11  20  31  54  88 116 145 190 237 281 331
#     4   9  19  34  53  80 109 138 177 225 281 336
#     4  10  20  37  56  79 114 149 183 230 289 346
#     4  11  23  42  60  80 112 144 179 229 283 344
#     4  12  25  40  60  84 109 143 185 229 287 354
#
# _framework density 18.206607000000002
#
# number of rings (size 3 to 8) (size 9 to 14) (size 15 to 20)
#    0.286    1.429    1.429    3.857    0.000    4.286 
#    0.857    0.000    0.000    2.429    0.000    0.000 
#    0.000    0.000    0.000    0.000    0.000    0.000 
#
# Total GULP energy -469111.960601 kJ/mol
# GULP energy per Si atom -5584.666198 kJ/mol
# Density = 1.816517 g / cm^3
# Si number density = 18.206607 Si / 1000 Ang^3
#
#
#
# Elastic Constant Matrix: (Units=GPa)
#
#
# Indices 1 2 3 4 5 6 
#
# 1 41.9099 -3.0214 -4.2078 0.0000 0.0000 0.0000
# 2 -3.0214 41.9099 -4.2078 0.0000 0.0000 0.0000
# 3 -4.2078 -4.2078 80.5011 0.0000 0.0000 0.0000
# 4 0.0000 0.0000 0.0000 13.8833 0.0000 0.0000
# 5 0.0000 0.0000 0.0000 0.0000 13.8833 0.0000
# 6 0.0000 0.0000 0.0000 0.0000 0.0000 22.4657
#
#
#
# Elastic Compliance Matrix: (Units=1/GPa)
#
#
# Indices 1 2 3 4 5 6 
#
# 1 0.024132 0.001876 0.001359 0.000000 0.000000 0.000000
# 2 0.001876 0.024132 0.001359 0.000000 0.000000 0.000000
# 3 0.001359 0.001359 0.012564 0.000000 0.000000 0.000000
# 4 0.000000 0.000000 0.000000 0.072029 0.000000 0.000000
# 5 0.000000 0.000000 0.000000 0.000000 0.072029 0.000000
# 6 0.000000 0.000000 0.000000 0.000000 0.000000 0.044512
#
#
# Mechanical properties :
#
#
# Convention : Reuss Voigt Hill
#
# Bulk Modulus (GPa) = 14.28168 15.71632 14.99900
# Shear Modulus (GPa) = 18.97181 21.76366 20.36773
#
# Velocity S-wave (km/s) = 3.23155 3.46117 3.34833
# Velocity P-wave (km/s) = 4.66746 4.96224 4.81710
#
# Compressibility (1/GPa) = 0.07001975
#
# Stress axis : x y z
#
# Youngs Moduli (GPa) = 41.43795 41.43795 79.59053
#
# Poissons Ratio (x) = -0.07775 -0.10820
# Poissons Ratio (y) = -0.07775 -0.10820
# Poissons Ratio (z) = -0.05633 -0.05633
#
# Static dielectric constant tensor:
#      x y z
#    x 1.632790 0.000000 0.000000 
#    y 0.000000 1.632790 0.000000 
#    z 0.000000 0.000000 1.601550 
# 
# From -- ./inp_files/3617.got.cif
#   From: 2010.05.17/outbox.cif.g08.bks.cpg/sg189_2_cif.got.tgz:3617.got - 2010.05.20 12:14:34.
