data_PCOD9586059
_publ_section_title
;
Structure prediction by ZEFSAII (Michael W. Deem and Ramdas Pophale) SiO2 
 PCOD9586059
Probable space group: P -6 C 2
;
_chemical_formula_sum "Si O2"
_cell_formula_units_Z 48
_cell_length_a 11.368706
_cell_length_b 11.368706
_cell_length_c 19.960475
_cell_angle_alpha 90.000000
_cell_angle_beta 90.000000
_cell_angle_gamma 120.000000
_cell_volume 2234.207857
_symmetry_space_group_name_H-M "P -6 C 2"
_symmetry_group_IT_number 188
_symmetry_cell_setting 'hexagonal'
loop_
_space_group_symop_operation_xyz
x,y,z
-x+y,-x,1/2-z
-y,x-y,z
x,y,1/2-z
-x+y,-x,z
-y,x-y,1/2-z
-y,-x,-z
-x+y,y,-z
x,x-y,-z
-x+y,y,1/2+z
x,x-y,1/2+z
-y,-x,1/2+z
loop_
_atom_site_type_symbol
_atom_site_label
_atom_site_fract_x
_atom_site_fract_y
_atom_site_fract_z
Si Si1 0.167272 0.832729 0.500000
Si Si2 0.666446 0.576684 0.034709
Si Si3 0.718139 0.921431 0.148497
Si Si4 0.763747 0.089784 0.677968
Si Si5 0.323571 0.814413 0.750000
O O1 0.090918 0.824939 0.430941
O O2 0.072065 0.676761 0.522436
O O3 0.689242 0.579788 0.114225
O O4 0.564673 0.435328 0.000000
O O5 0.813594 0.627188 0.000000
O O6 0.745700 0.805735 0.176650
O O7 0.573546 0.882367 0.182249
O O8 0.814705 0.074979 0.169482
O O9 0.719711 0.115424 0.750000
O O10 0.455211 0.798053 0.750000
#
# Coordination Sequence:
#
# PCOD9586059 Si02
#       5
#     6  12  12  12   6
#     4  10  24  42  68 106 130 188 232 288 350 432
#     4  11  24  46  70 100 144 189 234 295 363 427
#     4  11  21  40  66 103 139 176 233 290 360 418
#     4  11  21  39  69 104 135 180 238 303 361 427
#     4  10  24  42  62  90 142 190 216 282 352 414
#
# _framework density 21.484124000000001
#
# number of rings (size 3 to 8) (size 9 to 14) (size 15 to 20)
#    0.250    1.000    5.000    0.750    0.000    4.000 
#    1.500    1.250    0.000    0.000    0.000    0.000 
#    0.000    0.000    0.000    0.000    0.000    0.000 
#
# Total GULP energy -267281.297871 kJ/mol
# GULP energy per Si atom -5568.360372 kJ/mol
# Density = 2.143522 g / cm^3
# Si number density = 21.484124 Si / 1000 Ang^3
#
#
#
# Elastic Constant Matrix: (Units=GPa)
#
#
# Indices 1 2 3 4 5 6 
#
# 1 76.6304 11.7905 33.1564 -0.0001 0.0000 0.0000
# 2 11.7905 76.6304 33.1564 0.0001 0.0000 0.0000
# 3 33.1564 33.1564 224.6291 0.0000 0.0000 0.0000
# 4 -0.0001 0.0001 0.0000 -2.0582 0.0000 0.0000
# 5 0.0000 0.0000 0.0000 0.0000 -2.0582 -0.0001
# 6 0.0000 0.0000 0.0000 0.0000 -0.0001 32.4200
#
#
#
# Elastic Compliance Matrix: (Units=1/GPa)
#
#
# Indices 1 2 3 4 5 6 
#
# 1 0.014070 -0.001353 -0.001877 -0.000001 0.000000 0.000000
# 2 -0.001353 0.014070 -0.001877 0.000001 0.000000 0.000000
# 3 -0.001877 -0.001877 0.005006 0.000000 0.000000 0.000000
# 4 -0.000001 0.000001 0.000000 -0.485869 0.000000 0.000000
# 5 0.000000 0.000000 0.000000 0.000000 -0.485869 -0.000002
# 6 0.000000 0.000000 0.000000 0.000000 -0.000002 0.030845
#
#
# Mechanical properties :
#
#
# Convention : Reuss Voigt Hill
#
# Bulk Modulus (GPa) = 43.60713 59.34407 51.47560
# Shear Modulus (GPa) = -5.61868 25.64650 10.01391
#
# Velocity S-wave (km/s) = -1.61893 3.45881 2.16129
# Velocity P-wave (km/s) = 4.10449 6.60556 5.49910
#
# Compressibility (1/GPa) = 0.02293203
#
# Stress axis : x y z
#
# Youngs Moduli (GPa) = 71.07339 71.07339 199.76283
#
# Poissons Ratio (x) = 0.09614 0.37498
# Poissons Ratio (y) = 0.09614 0.37498
# Poissons Ratio (z) = 0.13342 0.13342
#
# Static dielectric constant tensor:
#      x y z
#    x 1.752950 0.000000 0.000000 
#    y 0.000000 1.752950 0.000000 
#    z 0.000000 0.000000 1.763450 
# 
# From -- ./inp_files/3578.got.cif
#   From: 2010.05.17/outbox.cif.g08.bks.cpg/sg188_2_cif.got.tgz:3578.got - 2010.05.20 12:11:46.
