data_PCOD9586149
_publ_section_title
;
Structure prediction by ZEFSAII (Michael W. Deem and Ramdas Pophale) SiO2 
 PCOD9586149
Probable space group: P -6 2 M
;
_chemical_formula_sum "Si O2"
_cell_formula_units_Z 82
_cell_length_a 21.668128
_cell_length_b 21.668128
_cell_length_c 12.406520
_cell_angle_alpha 90.000000
_cell_angle_beta 90.000000
_cell_angle_gamma 120.000000
_cell_volume 5044.561215
_symmetry_space_group_name_H-M "P -6 2 M"
_symmetry_group_IT_number 189
_symmetry_cell_setting 'hexagonal'
loop_
_space_group_symop_operation_xyz
x,y,z
-x+y,-x,-z
-y,x-y,z
x,y,-z
-x+y,-x,z
-y,x-y,-z
x-y,-y,-z
-x,-x+y,-z
y,x,-z
y,x,z
x-y,-y,z
-x,-x+y,z
loop_
_atom_site_type_symbol
_atom_site_label
_atom_site_fract_x
_atom_site_fract_y
_atom_site_fract_z
Si Si1 0.825192 0.368203 0.126554
Si Si2 0.333334 0.666668 0.373429
Si Si3 0.400202 0.083326 0.747127
Si Si4 0.920603 0.839315 0.500000
Si Si5 0.786212 0.199020 0.623851
Si Si6 0.768422 0.459305 0.227180
Si Si7 0.272361 0.082808 0.873829
Si Si8 0.741217 0.917467 0.693210
O O1 0.884060 0.361151 0.196301
O O2 0.816250 0.435138 0.161181
O O3 0.749497 0.297056 0.154950
O O4 0.839546 0.369987 0.000000
O O5 0.333334 0.666668 0.500000
O O6 0.402176 0.733571 0.323385
O O7 0.406545 0.137430 0.652292
O O8 0.345580 0.088434 0.831282
O O9 0.365228 0.000000 0.717100
O O10 0.861713 0.861713 0.500000
O O11 0.914300 0.794067 0.394555
O O12 0.000000 0.906628 0.500000
O O13 0.766996 0.203139 0.500000
O O14 0.731245 0.196735 0.712987
O O15 0.792591 0.129346 0.642445
O O16 0.257257 0.134708 0.801273
O O17 0.212428 0.000000 0.858297
O O18 0.277745 0.099562 0.000000
O O19 0.766351 0.000000 0.710646
#
# Coordination Sequence:
#
# PCOD9586149 Si02
#       8
#    12   4  12   6  12  12  12  12
#     4  10  18  31  51  72 100 135 167 208 256 300
#     4   9  15  27  46  68  91 123 153 204 259 296
#     4   9  19  33  51  79 106 129 165 211 261 313
#     4  10  19  32  50  74 100 124 158 206 260 306
#     4  10  19  34  52  72  99 137 171 209 255 303
#     4   9  19  30  46  74 100 125 170 211 244 295
#     4   9  17  31  51  75 102 132 166 207 257 310
#     4  10  20  33  50  73  99 131 172 210 248 302
#
# _framework density 16.255130999999999
#
# number of rings (size 3 to 8) (size 9 to 14) (size 15 to 20)
#    0.000    2.488    0.732    2.122    0.000    2.049 
#    0.000    2.195    0.000    0.293    0.000    0.000 
#    0.000    0.000    0.000    0.000    0.000    0.000 
#
# Total GULP energy -456960.189089 kJ/mol
# GULP energy per Si atom -5572.685233 kJ/mol
# Density = 1.621813 g / cm^3
# Si number density = 16.255131 Si / 1000 Ang^3
#
#
#
# Elastic Constant Matrix: (Units=GPa)
#
#
# Indices 1 2 3 4 5 6 
#
# 1 71.4776 30.7115 7.8614 0.0000 -0.0001 0.0001
# 2 30.7115 71.4781 7.8610 0.0000 -0.0001 0.0001
# 3 7.8614 7.8610 55.0109 0.0000 0.0001 0.0000
# 4 0.0000 0.0000 0.0000 11.8090 0.0000 0.0000
# 5 -0.0001 -0.0001 0.0001 0.0000 11.8090 0.0000
# 6 0.0001 0.0001 0.0000 0.0000 0.0000 20.3832
#
#
#
# Elastic Compliance Matrix: (Units=1/GPa)
#
#
# Indices 1 2 3 4 5 6 
#
# 1 0.017268 -0.007262 -0.001430 0.000000 0.000000 0.000000
# 2 -0.007262 0.017268 -0.001430 0.000000 0.000000 0.000000
# 3 -0.001430 -0.001430 0.018587 0.000000 0.000000 0.000000
# 4 0.000000 0.000000 0.000000 0.084681 0.000000 0.000000
# 5 0.000000 0.000000 0.000000 0.000000 0.084681 0.000000
# 6 0.000000 0.000000 0.000000 0.000000 0.000000 0.049060
#
#
# Mechanical properties :
#
#
# Convention : Reuss Voigt Hill
#
# Bulk Modulus (GPa) = 30.41458 32.31495 31.36476
# Shear Modulus (GPa) = 16.51538 18.90243 17.70891
#
# Velocity S-wave (km/s) = 3.19095 3.41377 3.30424
# Velocity P-wave (km/s) = 5.68574 5.95495 5.82190
#
# Compressibility (1/GPa) = 0.03287897
#
# Stress axis : x y z
#
# Youngs Moduli (GPa) = 57.91068 57.91120 53.80141
#
# Poissons Ratio (x) = 0.42056 0.07693
# Poissons Ratio (y) = 0.42056 0.07692
# Poissons Ratio (z) = 0.08281 0.08280
#
# Static dielectric constant tensor:
#      x y z
#    x 1.547380 0.000000 0.000000 
#    y 0.000000 1.547370 0.000000 
#    z 0.000000 0.000000 1.529060 
# 
# From -- ./inp_files/2150.got.cif
#   From: 2010.05.17/outbox.cif.g08.bks.cpg/sg189_2_cif.got.tgz:2150.got - 2010.05.20 12:14:34.
