data_PCOD9586412
_publ_section_title
;
Structure prediction by ZEFSAII (Michael W. Deem and Ramdas Pophale) SiO2 
 PCOD9586412
Probable space group: P -6 2 M
;
_chemical_formula_sum "Si O2"
_cell_formula_units_Z 66
_cell_length_a 19.034947
_cell_length_b 19.034947
_cell_length_c 10.026817
_cell_angle_alpha 90.000000
_cell_angle_beta 90.000000
_cell_angle_gamma 120.000000
_cell_volume 3146.277788
_symmetry_space_group_name_H-M "P -6 2 M"
_symmetry_group_IT_number 189
_symmetry_cell_setting 'hexagonal'
loop_
_space_group_symop_operation_xyz
x,y,z
-x+y,-x,-z
-y,x-y,z
x,y,-z
-x+y,-x,z
-y,x-y,-z
x-y,-y,-z
-x,-x+y,-z
y,x,-z
y,x,z
x-y,-y,z
-x,-x+y,z
loop_
_atom_site_type_symbol
_atom_site_label
_atom_site_fract_x
_atom_site_fract_y
_atom_site_fract_z
Si Si1 0.172636 0.700794 0.259055
Si Si2 0.749213 0.839085 0.149852
Si Si3 0.648118 0.233595 0.500000
Si Si4 0.863470 0.302428 0.849335
Si Si5 0.301588 0.213968 0.360323
Si Si6 0.429136 0.429136 0.846371
Si Si7 0.000000 0.438472 0.337008
O O1 0.188404 0.645844 0.363228
O O2 0.252967 0.766350 0.179769
O O3 0.153822 0.759308 0.349014
O O4 0.089894 0.651569 0.172169
O O5 0.804075 0.804075 0.203613
O O6 0.656426 0.765140 0.145840
O O7 0.747712 0.905241 0.240973
O O8 0.773737 0.867597 0.000000
O O9 0.584162 0.265443 0.500000
O O10 0.920145 0.364579 0.735021
O O11 0.878039 0.338892 0.000000
O O12 0.267903 0.171003 0.500000
O O13 0.293386 0.293386 0.358079
O O14 0.483412 0.483412 0.723383
O O15 0.455533 0.455533 0.000000
O O16 0.000000 0.434452 0.500000
#
# Coordination Sequence:
#
# PCOD9586412 Si02
#       7
#    12  12   6  12  12   6   6
#     4  11  23  41  70  90 134 170 223 270 338 396
#     4   9  18  34  56  85 121 160 203 258 318 376
#     4  10  26  43  64  98 134 174 229 278 326 406
#     4  10  21  41  64  91 128 169 211 269 329 395
#     4  10  20  35  56  89 124 165 210 261 321 382
#     4  12  28  46  68 100 130 170 221 282 341 408
#     4  12  28  40  66  98 132 172 225 274 339 402
#
# _framework density 20.977169
#
# number of rings (size 3 to 8) (size 9 to 14) (size 15 to 20)
#    0.182    1.455    2.727    1.364    5.091    2.182 
#    0.000    0.000    0.000    0.364    0.000    0.000 
#    0.000    0.000    0.000    0.000    0.000    0.000 
#
# Total GULP energy -367492.930756 kJ/mol
# GULP energy per Si atom -5568.074708 kJ/mol
# Density = 2.092942 g / cm^3
# Si number density = 20.977169 Si / 1000 Ang^3
#
#
#
# Elastic Constant Matrix: (Units=GPa)
#
#
# Indices 1 2 3 4 5 6 
#
# 1 65.8639 4.5416 32.9142 0.0000 0.0000 0.0000
# 2 4.5416 65.8639 32.9142 0.0000 0.0000 0.0000
# 3 32.9142 32.9142 131.7380 0.0000 0.0000 0.0000
# 4 0.0000 0.0000 0.0000 27.6615 0.0000 0.0000
# 5 0.0000 0.0000 0.0000 0.0000 27.6615 0.0000
# 6 0.0000 0.0000 0.0000 0.0000 0.0000 30.6612
#
#
#
# Elastic Compliance Matrix: (Units=1/GPa)
#
#
# Indices 1 2 3 4 5 6 
#
# 1 0.017420 0.001113 -0.004630 0.000000 0.000000 0.000000
# 2 0.001113 0.017420 -0.004630 0.000000 0.000000 0.000000
# 3 -0.004630 -0.004630 0.009905 0.000000 0.000000 0.000000
# 4 0.000000 0.000000 0.000000 0.036151 0.000000 0.000000
# 5 0.000000 0.000000 0.000000 0.000000 0.036151 0.000000
# 6 0.000000 0.000000 0.000000 0.000000 0.000000 0.032615
#
#
# Mechanical properties :
#
#
# Convention : Reuss Voigt Hill
#
# Bulk Modulus (GPa) = 35.15092 44.91176 40.03134
# Shear Modulus (GPa) = 28.49968 30.06989 29.28478
#
# Velocity S-wave (km/s) = 3.68992 3.79021 3.74040
# Velocity P-wave (km/s) = 5.91161 6.37264 6.14645
#
# Compressibility (1/GPa) = 0.02844876
#
# Stress axis : x y z
#
# Youngs Moduli (GPa) = 57.40519 57.40519 100.96344
#
# Poissons Ratio (x) = -0.06388 0.46750
# Poissons Ratio (y) = -0.06388 0.46750
# Poissons Ratio (z) = 0.26581 0.26581
#
# Static dielectric constant tensor:
#      x y z
#    x 1.783070 0.000000 0.000000 
#    y 0.000000 1.783070 0.000000 
#    z 0.000000 0.000000 1.790090 
# 
# From -- ./inp_files/1076.got.cif
#   From: 2010.05.17/outbox.cif.g08.bks.cpg/sg189_1_cif.got.tgz:1076.got - 2010.05.20 12:14:34.
