data_PCOD9586772
_publ_section_title
;
Structure prediction by ZEFSAII (Michael W. Deem and Ramdas Pophale) SiO2 
 PCOD9586772
Probable space group: P -6 2 C
;
_chemical_formula_sum "Si O2"
_cell_formula_units_Z 72
_cell_length_a 21.951796
_cell_length_b 21.951796
_cell_length_c 8.758740
_cell_angle_alpha 90.000000
_cell_angle_beta 90.000000
_cell_angle_gamma 120.000000
_cell_volume 3655.210416
_symmetry_space_group_name_H-M "P -6 2 C"
_symmetry_group_IT_number 190
_symmetry_cell_setting 'hexagonal'
loop_
_space_group_symop_operation_xyz
x,y,z
-x+y,-x,1/2-z
-y,x-y,z
x,y,1/2-z
-x+y,-x,z
-y,x-y,1/2-z
x-y,-y,-z
-x,-x+y,-z
y,x,-z
y,x,1/2+z
x-y,-y,1/2+z
-x,-x+y,1/2+z
loop_
_atom_site_type_symbol
_atom_site_label
_atom_site_fract_x
_atom_site_fract_y
_atom_site_fract_z
Si Si1 0.544025 0.704579 0.067704
Si Si2 0.784246 0.706592 0.566076
Si Si3 0.920913 0.451387 0.433572
Si Si4 0.079208 0.665302 0.933279
Si Si5 0.576149 0.288781 0.068275
Si Si6 0.286749 0.209026 0.932607
O O1 0.543741 0.703395 0.250000
O O2 0.624881 0.742660 0.015523
O O3 0.504699 0.625720 0.002601
O O4 0.497036 0.738073 0.012725
O O5 0.780114 0.706928 0.750000
O O6 0.749303 0.749303 0.500000
O O7 0.865724 0.736261 0.524441
O O8 0.922975 0.447201 0.250000
O O9 0.890850 0.504162 0.468740
O O10 0.000000 0.488525 0.500000
O O11 0.077992 0.671479 0.750000
O O12 0.107626 0.741144 0.007508
O O13 0.000000 0.623394 0.000000
O O14 0.629180 0.258211 0.033055
O O15 0.564326 0.283878 0.250000
O O16 0.287689 0.215039 0.750000
O O17 0.238673 0.238673 0.000000
#
# Coordination Sequence:
#
# PCOD9586772 Si02
#       6
#    12  12  12  12  12  12
#     4  11  22  35  54  80 110 150 196 240 292 344
#     4  10  24  42  59  85 119 152 188 232 276 335
#     4  10  20  33  49  73 108 149 195 244 291 341
#     4   9  17  30  50  78 109 142 182 227 277 328
#     4   8  18  37  56  75 105 143 191 248 298 343
#     4  10  20  37  61  89 119 146 182 229 281 337
#
# _framework density 19.697907000000001
#
# number of rings (size 3 to 8) (size 9 to 14) (size 15 to 20)
#    0.333    2.000    0.000    3.500    0.000    8.000 
#    0.000    3.333    0.000    0.333    0.000    0.000 
#    0.000    0.000    0.000    0.000    0.000    0.000 
#
# Total GULP energy -401772.580429 kJ/mol
# GULP energy per Si atom -5580.174728 kJ/mol
# Density = 1.965307 g / cm^3
# Si number density = 19.697907 Si / 1000 Ang^3
#
#
#
# Elastic Constant Matrix: (Units=GPa)
#
#
# Indices 1 2 3 4 5 6 
#
# 1 124.4043 63.0280 36.4728 0.0000 0.0000 0.0000
# 2 63.0280 124.4043 36.4728 0.0000 0.0000 0.0000
# 3 36.4728 36.4728 49.0959 0.0000 0.0000 0.0000
# 4 0.0000 0.0000 0.0000 26.8707 0.0000 0.0000
# 5 0.0000 0.0000 0.0000 0.0000 26.8707 0.0000
# 6 0.0000 0.0000 0.0000 0.0000 0.0000 30.6882
#
#
#
# Elastic Compliance Matrix: (Units=1/GPa)
#
#
# Indices 1 2 3 4 5 6 
#
# 1 0.011899 -0.004394 -0.005575 0.000000 0.000000 0.000000
# 2 -0.004394 0.011899 -0.005575 0.000000 0.000000 0.000000
# 3 -0.005575 -0.005575 0.028652 0.000000 0.000000 0.000000
# 4 0.000000 0.000000 0.000000 0.037215 0.000000 0.000000
# 5 0.000000 0.000000 0.000000 0.000000 0.037215 0.000000
# 6 0.000000 0.000000 0.000000 0.000000 0.000000 0.032586
#
#
# Mechanical properties :
#
#
# Convention : Reuss Voigt Hill
#
# Bulk Modulus (GPa) = 46.81525 63.31685 55.06605
# Shear Modulus (GPa) = 25.29385 27.68131 26.48758
#
# Velocity S-wave (km/s) = 3.58730 3.75279 3.67098
# Velocity P-wave (km/s) = 6.40129 7.14084 6.78116
#
# Compressibility (1/GPa) = 0.02136056
#
# Stress axis : x y z
#
# Youngs Moduli (GPa) = 84.04041 84.04041 34.90134
#
# Poissons Ratio (x) = 0.36926 0.19459
# Poissons Ratio (y) = 0.36926 0.19459
# Poissons Ratio (z) = 0.46857 0.46857
#
# Static dielectric constant tensor:
#      x y z
#    x 1.727850 0.000000 0.000000 
#    y 0.000000 1.727850 0.000000 
#    z 0.000000 0.000000 1.654270 
# 
# From -- ./inp_files/1232.got.cif
#   From: 2010.05.17/outbox.cif.g08.bks.cpg/sg190_1_cif.got.tgz:1232.got - 2010.05.20 12:16:56.
