data_PCOD9586419
_publ_section_title
;
Structure prediction by ZEFSAII (Michael W. Deem and Ramdas Pophale) SiO2 
 PCOD9586419
Probable space group: P -6 2 M
;
_chemical_formula_sum "Si O2"
_cell_formula_units_Z 51
_cell_length_a 17.016049
_cell_length_b 17.016049
_cell_length_c 10.627302
_cell_angle_alpha 90.000000
_cell_angle_beta 90.000000
_cell_angle_gamma 120.000000
_cell_volume 2664.839818
_symmetry_space_group_name_H-M "P -6 2 M"
_symmetry_group_IT_number 189
_symmetry_cell_setting 'hexagonal'
loop_
_space_group_symop_operation_xyz
x,y,z
-x+y,-x,-z
-y,x-y,z
x,y,-z
-x+y,-x,z
-y,x-y,-z
x-y,-y,-z
-x,-x+y,-z
y,x,-z
y,x,z
x-y,-y,z
-x,-x+y,z
loop_
_atom_site_type_symbol
_atom_site_label
_atom_site_fract_x
_atom_site_fract_y
_atom_site_fract_z
Si Si1 0.407250 0.890830 0.641976
Si Si2 0.103859 0.895646 0.351742
Si Si3 0.237908 0.846575 0.789563
Si Si4 0.640699 0.106600 0.141091
Si Si5 0.000000 0.346598 0.000000
O O1 0.419309 0.866419 0.500000
O O2 0.303050 0.843570 0.682593
O O3 0.461852 0.871271 0.748746
O O4 0.449059 0.000000 0.643945
O O5 0.113744 0.881540 0.500000
O O6 0.172816 0.879184 0.271333
O O7 0.000000 0.829506 0.315074
O O8 0.130168 0.000000 0.337047
O O9 0.172966 0.747531 0.846681
O O10 0.302914 0.920219 0.890674
O O11 0.609908 0.000000 0.155702
O O12 0.609747 0.114916 0.000000
#
# Coordination Sequence:
#
# PCOD9586419 Si02
#       5
#    12  12  12  12   3
#     4  10  22  40  64  91 121 157 205 262 320 381
#     4  10  20  35  58  88 125 170 220 273 327 385
#     4  12  22  40  64  94 127 167 216 262 326 383
#     4  10  23  40  63  91 124 165 211 259 314 382
#     4  12  24  36  64 100 128 168 216 266 304 392
#
# _framework density 19.138110999999999
#
# number of rings (size 3 to 8) (size 9 to 14) (size 15 to 20)
#    0.000    1.412    3.529    1.647    1.647    4.706 
#    1.412    2.353    0.000    0.000    0.000    0.000 
#    0.000    0.000    0.000    0.000    0.000    0.000 
#
# Total GULP energy -284029.328104 kJ/mol
# GULP energy per Si atom -5569.202512 kJ/mol
# Density = 1.909455 g / cm^3
# Si number density = 19.138111 Si / 1000 Ang^3
#
#
#
# Elastic Constant Matrix: (Units=GPa)
#
#
# Indices 1 2 3 4 5 6 
#
# 1 60.9927 14.9578 38.7634 0.0000 0.0000 0.0000
# 2 14.9578 60.9927 38.7634 0.0000 0.0000 0.0000
# 3 38.7634 38.7634 131.3284 0.0000 0.0000 0.0000
# 4 0.0000 0.0000 0.0000 4.9454 0.0000 0.0000
# 5 0.0000 0.0000 0.0000 0.0000 4.9454 0.0000
# 6 0.0000 0.0000 0.0000 0.0000 0.0000 23.0175
#
#
#
# Elastic Compliance Matrix: (Units=1/GPa)
#
#
# Indices 1 2 3 4 5 6 
#
# 1 0.020283 -0.001439 -0.005562 0.000000 0.000000 0.000000
# 2 -0.001439 0.020283 -0.005562 0.000000 0.000000 0.000000
# 3 -0.005562 -0.005562 0.010898 0.000000 0.000000 0.000000
# 4 0.000000 0.000000 0.000000 0.202208 0.000000 0.000000
# 5 0.000000 0.000000 0.000000 0.000000 0.202208 0.000000
# 6 0.000000 0.000000 0.000000 0.000000 0.000000 0.043445
#
#
# Mechanical properties :
#
#
# Convention : Reuss Voigt Hill
#
# Bulk Modulus (GPa) = 37.96852 48.69815 43.33334
# Shear Modulus (GPa) = 9.37679 17.30360 13.34020
#
# Velocity S-wave (km/s) = 2.21589 3.01016 2.64303
# Velocity P-wave (km/s) = 5.14093 6.13044 5.65736
#
# Compressibility (1/GPa) = 0.02633760
#
# Stress axis : x y z
#
# Youngs Moduli (GPa) = 49.30165 49.30165 91.76048
#
# Poissons Ratio (x) = 0.07096 0.51038
# Poissons Ratio (y) = 0.07096 0.51038
# Poissons Ratio (z) = 0.27422 0.27422
#
# Static dielectric constant tensor:
#      x y z
#    x 1.651970 0.000000 0.000000 
#    y 0.000000 1.651970 0.000000 
#    z 0.000000 0.000000 1.686690 
# 
# From -- ./inp_files/665.got.cif
#   From: 2010.05.17/outbox.cif.g08.bks.cpg/sg189_1_cif.got.tgz:665.got - 2010.05.20 12:14:34.
