data_PCOD9586192
_publ_section_title
;
Structure prediction by ZEFSAII (Michael W. Deem and Ramdas Pophale) SiO2 
 PCOD9586192
Probable space group: P -6 2 M
;
_chemical_formula_sum "Si O2"
_cell_formula_units_Z 60
_cell_length_a 23.737574
_cell_length_b 23.737574
_cell_length_c 8.030928
_cell_angle_alpha 90.000000
_cell_angle_beta 90.000000
_cell_angle_gamma 120.000000
_cell_volume 3918.943726
_symmetry_space_group_name_H-M "P -6 2 M"
_symmetry_group_IT_number 189
_symmetry_cell_setting 'hexagonal'
loop_
_space_group_symop_operation_xyz
x,y,z
-x+y,-x,-z
-y,x-y,z
x,y,-z
-x+y,-x,z
-y,x-y,-z
x-y,-y,-z
-x,-x+y,-z
y,x,-z
y,x,z
x-y,-y,z
-x,-x+y,z
loop_
_atom_site_type_symbol
_atom_site_label
_atom_site_fract_x
_atom_site_fract_y
_atom_site_fract_z
Si Si1 0.474887 0.395447 0.000000
Si Si2 0.320041 0.399012 0.309642
Si Si3 0.079109 0.401713 0.683605
Si Si4 0.267566 0.193669 0.299402
Si Si5 0.202412 0.925688 0.803320
Si Si6 0.605141 0.525686 0.000000
O O1 0.452938 0.352101 0.832885
O O2 0.433919 0.433919 0.000000
O O3 0.549943 0.450684 0.000000
O O4 0.319193 0.420904 0.500000
O O5 0.362318 0.362318 0.315719
O O6 0.248276 0.341862 0.259117
O O7 0.100374 0.430791 0.500000
O O8 0.096534 0.345222 0.713694
O O9 0.101169 0.451938 0.834926
O O10 0.000000 0.363297 0.686819
O O11 0.263889 0.190889 0.500000
O O12 0.220886 0.220886 0.239769
O O13 0.252262 0.124522 0.232336
O O14 0.226779 0.000000 0.751462
O O15 0.215115 0.926685 0.000000
O O16 0.566404 0.566404 0.000000
#
# Coordination Sequence:
#
# PCOD9586192 Si02
#       6
#     6  12  12  12  12   6
#     4   9  16  24  39  58  81 114 142 167 200 236
#     4   8  15  27  40  58  84 111 143 179 214 260
#     4   9  16  27  42  58  82 115 145 179 221 261
#     4   9  18  31  46  65  88 115 153 199 243 295
#     4  10  19  30  45  66  90 115 152 200 245 297
#     4   9  16  26  37  58  85 108 144 175 192 238
#
# _framework density 15.310247
#
# number of rings (size 3 to 8) (size 9 to 14) (size 15 to 20)
#    0.000    3.000    1.000    1.800    1.400    2.400 
#    0.000    4.000    0.000    0.400    0.000    0.000 
#    0.000    0.000    0.000    4.800    0.000   22.400 
#
# Total GULP energy -334033.282174 kJ/mol
# GULP energy per Si atom -5567.221370 kJ/mol
# Density = 1.527540 g / cm^3
# Si number density = 15.310247 Si / 1000 Ang^3
#
#
#
# Elastic Constant Matrix: (Units=GPa)
#
#
# Indices 1 2 3 4 5 6 
#
# 1 61.2542 33.5880 37.6276 0.0000 0.0000 0.0000
# 2 33.5880 61.2542 37.6276 0.0000 0.0000 0.0000
# 3 37.6276 37.6276 85.7870 0.0000 0.0000 0.0000
# 4 0.0000 0.0000 0.0000 11.6649 0.0000 0.0000
# 5 0.0000 0.0000 0.0000 0.0000 11.6649 0.0000
# 6 0.0000 0.0000 0.0000 0.0000 0.0000 13.8331
#
#
#
# Elastic Compliance Matrix: (Units=1/GPa)
#
#
# Indices 1 2 3 4 5 6 
#
# 1 0.026159 -0.009986 -0.007093 0.000000 0.000000 0.000000
# 2 -0.009986 0.026159 -0.007093 0.000000 0.000000 0.000000
# 3 -0.007093 -0.007093 0.017879 0.000000 0.000000 0.000000
# 4 0.000000 0.000000 0.000000 0.085727 0.000000 0.000000
# 5 0.000000 0.000000 0.000000 0.000000 0.085727 0.000000
# 6 0.000000 0.000000 0.000000 0.000000 0.000000 0.072290
#
#
# Mechanical properties :
#
#
# Convention : Reuss Voigt Hill
#
# Bulk Modulus (GPa) = 45.76608 47.33131 46.54869
# Shear Modulus (GPa) = 13.52917 14.06273 13.79595
#
# Velocity S-wave (km/s) = 2.97588 3.03399 3.00508
# Velocity P-wave (km/s) = 6.46260 6.57688 6.51999
#
# Compressibility (1/GPa) = 0.02185024
#
# Stress axis : x y z
#
# Youngs Moduli (GPa) = 38.22809 38.22809 55.93038
#
# Poissons Ratio (x) = 0.38176 0.39674
# Poissons Ratio (y) = 0.38176 0.39674
# Poissons Ratio (z) = 0.27117 0.27117
#
# Static dielectric constant tensor:
#      x y z
#    x 1.495730 0.000000 0.000000 
#    y 0.000000 1.495730 0.000000 
#    z 0.000000 0.000000 1.544450 
# 
# From -- ./inp_files/947.got.cif
#   From: 2010.05.17/outbox.cif.g08.bks.cpg/sg189_1_cif.got.tgz:947.got - 2010.05.20 12:14:34.
