data_PCOD9586721
_publ_section_title
;
Structure prediction by ZEFSAII (Michael W. Deem and Ramdas Pophale) SiO2 
 PCOD9586721
Probable space group: P -6 2 C
;
_chemical_formula_sum "Si O2"
_cell_formula_units_Z 66
_cell_length_a 19.946570
_cell_length_b 19.946570
_cell_length_c 10.207389
_cell_angle_alpha 90.000000
_cell_angle_beta 90.000000
_cell_angle_gamma 120.000000
_cell_volume 3517.075963
_symmetry_space_group_name_H-M "P -6 2 C"
_symmetry_group_IT_number 190
_symmetry_cell_setting 'hexagonal'
loop_
_space_group_symop_operation_xyz
x,y,z
-x+y,-x,1/2-z
-y,x-y,z
x,y,1/2-z
-x+y,-x,z
-y,x-y,1/2-z
x-y,-y,-z
-x,-x+y,-z
y,x,-z
y,x,1/2+z
x-y,-y,1/2+z
-x,-x+y,1/2+z
loop_
_atom_site_type_symbol
_atom_site_label
_atom_site_fract_x
_atom_site_fract_y
_atom_site_fract_z
Si Si1 0.584263 0.072046 0.250000
Si Si2 0.907805 0.404523 0.481046
Si Si3 0.762564 0.117440 0.250000
Si Si4 0.384223 0.153645 0.008948
Si Si5 0.428606 0.540198 0.250000
Si Si6 0.043463 0.797915 0.250000
Si Si7 0.576235 0.826327 0.250000
Si Si8 0.844953 0.783729 0.898839
O O1 0.561892 0.104767 0.376402
O O2 0.671333 0.088979 0.250000
O O3 0.525578 0.979610 0.250000
O O4 0.876558 0.316672 0.439846
O O5 0.873735 0.409957 0.620045
O O6 0.000000 0.443797 0.500000
O O7 0.800462 0.168768 0.378472
O O8 0.776602 0.044549 0.250000
O O9 0.423249 0.206521 0.881743
O O10 0.300970 0.086741 0.956398
O O11 0.336640 0.493240 0.250000
O O12 0.095195 0.756057 0.250000
O O13 0.074958 0.858208 0.127702
O O14 0.821117 0.791973 0.750000
O O15 0.844460 0.844460 0.000000
#
# Coordination Sequence:
#
# PCOD9586721 Si02
#       8
#     6  12   6  12   6   6   6  12
#     4  10  21  38  56  87 114 166 199 257 305 379
#     4  10  21  37  58  84 116 149 216 247 315 365
#     4  12  23  36  63  88 138 164 205 258 347 372
#     4  11  22  36  58  91 126 167 202 282 312 386
#     4  10  19  34  61  80 107 162 197 258 310 370
#     4   8  20  37  57  92 127 158 206 255 298 426
#     4  10  19  37  55  85 124 156 209 256 338 367
#     4   9  20  38  60  88 129 164 201 249 327 380
#
# _framework density 18.765588999999999
#
# number of rings (size 3 to 8) (size 9 to 14) (size 15 to 20)
#    0.545    1.455    1.818    2.727    1.273    2.909 
#    3.273    0.000    2.000   14.545    0.000    0.000 
#   29.091    0.000    0.000    0.000    0.000    0.000 
#
# Total GULP energy -368096.041866 kJ/mol
# GULP energy per Si atom -5577.212756 kJ/mol
# Density = 1.872288 g / cm^3
# Si number density = 18.765589 Si / 1000 Ang^3
#
#
#
# Elastic Constant Matrix: (Units=GPa)
#
#
# Indices 1 2 3 4 5 6 
#
# 1 95.0214 40.3597 44.6390 0.0000 0.0000 0.0000
# 2 40.3597 95.0214 44.6390 0.0000 0.0000 0.0000
# 3 44.6390 44.6390 105.8349 0.0000 0.0000 0.0000
# 4 0.0000 0.0000 0.0000 13.9431 0.0000 0.0000
# 5 0.0000 0.0000 0.0000 0.0000 13.9431 0.0000
# 6 0.0000 0.0000 0.0000 0.0000 0.0000 27.3309
#
#
#
# Elastic Compliance Matrix: (Units=1/GPa)
#
#
# Indices 1 2 3 4 5 6 
#
# 1 0.014264 -0.004031 -0.004316 0.000000 0.000000 0.000000
# 2 -0.004031 0.014264 -0.004316 0.000000 0.000000 0.000000
# 3 -0.004316 -0.004316 0.013089 0.000000 0.000000 0.000000
# 4 0.000000 0.000000 0.000000 0.071720 0.000000 0.000000
# 5 0.000000 0.000000 0.000000 0.000000 0.071720 0.000000
# 6 0.000000 0.000000 0.000000 0.000000 0.000000 0.036589
#
#
# Mechanical properties :
#
#
# Convention : Reuss Voigt Hill
#
# Bulk Modulus (GPa) = 61.38324 61.68367 61.53345
# Shear Modulus (GPa) = 19.80975 22.12610 20.96792
#
# Velocity S-wave (km/s) = 3.25259 3.43750 3.34632
# Velocity P-wave (km/s) = 6.84743 6.97833 6.91319
#
# Compressibility (1/GPa) = 0.01629109
#
# Stress axis : x y z
#
# Youngs Moduli (GPa) = 70.10885 70.10885 76.39744
#
# Poissons Ratio (x) = 0.28259 0.32973
# Poissons Ratio (y) = 0.28259 0.32973
# Poissons Ratio (z) = 0.30259 0.30259
#
# Static dielectric constant tensor:
#      x y z
#    x 1.635800 0.000000 0.000000 
#    y 0.000000 1.635800 0.000000 
#    z 0.000000 0.000000 1.674420 
# 
# From -- ./inp_files/1118.got.cif
#   From: 2010.05.17/outbox.cif.g08.bks.cpg/sg190_1_cif.got.tgz:1118.got - 2010.05.20 12:16:56.
