data_PCOD9587527
_publ_section_title
;
Structure prediction by ZEFSAII (Michael W. Deem and Ramdas Pophale) SiO2 
 PCOD9587527
Probable space group: P 6/M M M
;
_chemical_formula_sum "Si O2"
_cell_formula_units_Z 84
_cell_length_a 17.834857
_cell_length_b 17.834857
_cell_length_c 20.404290
_cell_angle_alpha 90.000000
_cell_angle_beta 90.000000
_cell_angle_gamma 120.000000
_cell_volume 5620.712635
_symmetry_space_group_name_H-M "P 6/M M M"
_symmetry_group_IT_number 191
_symmetry_cell_setting 'hexagonal'
loop_
_space_group_symop_operation_xyz
x,y,z
x-y,x,z
-y,x-y,z
-x,-y,z
-x+y,-x,z
y,-x+y,z
x-y,-y,-z
-x,-x+y,-z
y,x,-z
-y,-x,-z
-x+y,y,-z
x,x-y,-z
-x,-y,-z
-x+y,-x,-z
y,-x+y,-z
x,y,-z
x-y,x,-z
-y,x-y,-z
-x+y,y,z
x,x-y,z
-y,-x,z
y,x,z
x-y,-y,z
-x,-x+y,z
loop_
_atom_site_type_symbol
_atom_site_label
_atom_site_fract_x
_atom_site_fract_y
_atom_site_fract_z
Si Si1 0.895116 0.533031 0.426865
Si Si2 0.101535 0.731328 0.299087
Si Si3 0.487496 0.332240 0.828899
Si Si4 0.590843 0.000000 0.925348
O O1 0.866922 0.542383 0.500000
O O2 0.864620 0.432310 0.415546
O O3 0.874163 0.576099 0.366832
O O4 0.000000 0.582691 0.428127
O O5 0.166756 0.833245 0.290259
O O6 0.120079 0.683223 0.239651
O O7 0.000000 0.699662 0.300082
O O8 0.497602 0.248801 0.841262
O O9 0.580472 0.419529 0.825823
O O10 0.431025 0.345368 0.884633
O O11 0.500000 0.000000 0.927470
O O12 0.618498 0.000000 0.000000
#
# Coordination Sequence:
#
# PCOD9587527 Si02
#       4
#    24  24  24  12
#     4   8  14  25  42  64  89 117 149 184 223 269
#     4  10  19  30  46  67  91 120 155 195 236 279
#     4  10  19  31  48  70  95 123 155 191 230 272
#     4   9  18  32  48  66  91 123 154 184 223 270
#
# _framework density 14.944725
#
# number of rings (size 3 to 8) (size 9 to 14) (size 15 to 20)
#    0.000    2.714    1.429    2.000    0.000    2.286 
#    0.000    0.000    0.000    2.571    0.000    0.000 
#    0.000    0.000    0.000    7.143    0.000   13.000 
#
# Total GULP energy -467743.009118 kJ/mol
# GULP energy per Si atom -5568.369156 kJ/mol
# Density = 1.491071 g / cm^3
# Si number density = 14.944725 Si / 1000 Ang^3
#
#
#
# Elastic Constant Matrix: (Units=GPa)
#
#
# Indices 1 2 3 4 5 6 
#
# 1 85.0987 53.4843 48.5936 0.0000 0.0000 0.0000
# 2 53.4843 85.0987 48.5936 0.0000 0.0000 0.0000
# 3 48.5936 48.5936 120.1593 0.0000 0.0000 0.0000
# 4 0.0000 0.0000 0.0000 8.5724 0.0000 0.0000
# 5 0.0000 0.0000 0.0000 0.0000 8.5724 0.0000
# 6 0.0000 0.0000 0.0000 0.0000 0.0000 15.8072
#
#
#
# Elastic Compliance Matrix: (Units=1/GPa)
#
#
# Indices 1 2 3 4 5 6 
#
# 1 0.020852 -0.010779 -0.004073 0.000000 0.000000 0.000000
# 2 -0.010779 0.020852 -0.004073 0.000000 0.000000 0.000000
# 3 -0.004073 -0.004073 0.011617 0.000000 0.000000 0.000000
# 4 0.000000 0.000000 0.000000 0.116653 0.000000 0.000000
# 5 0.000000 0.000000 0.000000 0.000000 0.116653 0.000000
# 6 0.000000 0.000000 0.000000 0.000000 0.000000 0.063262
#
#
# Mechanical properties :
#
#
# Convention : Reuss Voigt Hill
#
# Bulk Modulus (GPa) = 64.64826 65.74443 65.19635
# Shear Modulus (GPa) = 12.72598 15.90277 14.31437
#
# Velocity S-wave (km/s) = 2.92128 3.26560 3.09823
# Velocity P-wave (km/s) = 7.39802 7.63584 7.51787
#
# Compressibility (1/GPa) = 0.01546832
#
# Stress axis : x y z
#
# Youngs Moduli (GPa) = 47.95737 47.95737 86.08095
#
# Poissons Ratio (x) = 0.51695 0.35065
# Poissons Ratio (y) = 0.51695 0.35065
# Poissons Ratio (z) = 0.19535 0.19535
#
# Static dielectric constant tensor:
#      x y z
#    x 1.481990 0.000000 0.000000 
#    y 0.000000 1.481990 0.000000 
#    z 0.000000 0.000000 1.508680 
# 
# From -- ./inp_files/6979.got.cif
#   From: 2010.05.17/outbox.cif.g08.bks.cpg/sg191_4_cif.got.tgz:6979.got - 2010.05.20 12:20:32.
