data_PCOD9587164
_publ_section_title
;
Structure prediction by ZEFSAII (Michael W. Deem and Ramdas Pophale) SiO2 
 PCOD9587164
Probable space group: P 6/M M M
;
_chemical_formula_sum "Si O2"
_cell_formula_units_Z 192
_cell_length_a 25.033151
_cell_length_b 25.033151
_cell_length_c 22.485999
_cell_angle_alpha 90.000000
_cell_angle_beta 90.000000
_cell_angle_gamma 120.000000
_cell_volume 12203.203589
_symmetry_space_group_name_H-M "P 6/M M M"
_symmetry_group_IT_number 191
_symmetry_cell_setting 'hexagonal'
loop_
_space_group_symop_operation_xyz
x,y,z
x-y,x,z
-y,x-y,z
-x,-y,z
-x+y,-x,z
y,-x+y,z
x-y,-y,-z
-x,-x+y,-z
y,x,-z
-y,-x,-z
-x+y,y,-z
x,x-y,-z
-x,-y,-z
-x+y,-x,-z
y,-x+y,-z
x,y,-z
x-y,x,-z
-y,x-y,-z
-x+y,y,z
x,x-y,z
-y,-x,z
y,x,z
x-y,-y,z
-x,-x+y,z
loop_
_atom_site_type_symbol
_atom_site_label
_atom_site_fract_x
_atom_site_fract_y
_atom_site_fract_z
Si Si1 0.074964 0.477284 0.431094
Si Si2 0.156881 0.639546 0.066680
Si Si3 0.927300 0.306115 0.107948
Si Si4 0.257542 0.069367 0.070583
Si Si5 0.263858 0.070685 0.428728
Si Si6 0.266961 0.408753 0.768959
Si Si7 0.300098 0.926251 0.644321
Si Si8 0.547599 0.214332 0.193760
O O1 0.093473 0.478308 0.500000
O O2 0.094077 0.547039 0.412865
O O3 0.094780 0.438180 0.389808
O O4 0.000000 0.439327 0.430594
O O5 0.131460 0.565730 0.069980
O O6 0.107782 0.661964 0.077709
O O7 0.202574 0.667040 0.122713
O O8 0.183192 0.658778 0.000000
O O9 0.913727 0.241920 0.078732
O O10 0.904858 0.289187 0.175814
O O11 0.000000 0.351617 0.104417
O O12 0.247427 0.123714 0.095580
O O13 0.214615 0.000000 0.095268
O O14 0.246163 0.066136 0.000000
O O15 0.273187 0.073015 0.500000
O O16 0.248084 0.124042 0.413106
O O17 0.326430 0.083507 0.396280
O O18 0.212269 0.000000 0.413984
O O19 0.196604 0.393208 0.777153
O O20 0.276679 0.385006 0.706518
O O21 0.308579 0.482839 0.773671
O O22 0.341408 0.000000 0.654373
O O23 0.598174 0.196347 0.210687
O O24 0.570615 0.285308 0.205801
#
# Coordination Sequence:
#
# PCOD9587164 Si02
#       8
#    24  24  24  24  24  24  24  24
#     4   8  14  25  41  62  88 116 145 176 209 246
#     4   9  18  31  45  64  90 115 140 174 218 266
#     4  10  19  31  46  63  84 113 148 180 211 253
#     4   9  17  29  46  67  88 110 139 177 219 263
#     4   9  17  29  46  68  93 121 153 189 228 270
#     4  10  20  32  44  60  85 114 142 177 220 260
#     4  10  18  28  44  65  89 118 149 180 216 262
#     4   9  18  32  48  63  80 107 144 185 225 262
#
# _framework density 15.733574000000001
#
# number of rings (size 3 to 8) (size 9 to 14) (size 15 to 20)
#    0.000    2.750    0.000    2.375    0.000    3.750 
#    0.000    0.625    0.000    3.250    0.000    1.750 
#    0.000    0.000    0.000    0.000    0.000   32.625 
#
# Total GULP energy -1068925.440418 kJ/mol
# GULP energy per Si atom -5567.320002 kJ/mol
# Density = 1.569776 g / cm^3
# Si number density = 15.733574 Si / 1000 Ang^3
#
#
#
# Elastic Constant Matrix: (Units=GPa)
#
#
# Indices 1 2 3 4 5 6 
#
# 1 60.2875 38.3610 12.4787 0.0000 0.0000 0.0000
# 2 38.3610 60.2875 12.4787 0.0000 0.0000 0.0000
# 3 12.4787 12.4787 40.0943 0.0000 0.0000 0.0000
# 4 0.0000 0.0000 0.0000 15.3098 0.0000 0.0000
# 5 0.0000 0.0000 0.0000 0.0000 15.3098 0.0000
# 6 0.0000 0.0000 0.0000 0.0000 0.0000 10.9633
#
#
#
# Elastic Compliance Matrix: (Units=1/GPa)
#
#
# Indices 1 2 3 4 5 6 
#
# 1 0.028305 -0.017302 -0.003425 0.000000 0.000000 0.000000
# 2 -0.017302 0.028305 -0.003425 0.000000 0.000000 0.000000
# 3 -0.003425 -0.003425 0.027073 0.000000 0.000000 0.000000
# 4 0.000000 0.000000 0.000000 0.065318 0.000000 0.000000
# 5 0.000000 0.000000 0.000000 0.000000 0.065318 0.000000
# 6 0.000000 0.000000 0.000000 0.000000 0.000000 0.091214
#
#
# Mechanical properties :
#
#
# Convention : Reuss Voigt Hill
#
# Bulk Modulus (GPa) = 28.26359 31.92292 30.09325
# Shear Modulus (GPa) = 13.67509 14.80662 14.24086
#
# Velocity S-wave (km/s) = 2.95136 3.07104 3.01179
# Velocity P-wave (km/s) = 5.44214 5.73662 5.59132
#
# Compressibility (1/GPa) = 0.03538121
#
# Stress axis : x y z
#
# Youngs Moduli (GPa) = 35.32926 35.32926 36.93724
#
# Poissons Ratio (x) = 0.61126 0.12650
# Poissons Ratio (y) = 0.61126 0.12650
# Poissons Ratio (z) = 0.12099 0.12099
#
# Static dielectric constant tensor:
#      x y z
#    x 1.525870 0.000000 0.000000 
#    y 0.000000 1.525870 0.000000 
#    z 0.000000 0.000000 1.513720 
# 
# From -- ./inp_files/8117.got.cif
#   From: 2010.05.17/outbox.cif.g08.bks.cpg/sg191_5_cif.got.tgz:8117.got - 2010.05.20 12:20:32.
