data_PCOD9587030
_publ_section_title
;
Structure prediction by ZEFSAII (Michael W. Deem and Ramdas Pophale) SiO2 
 PCOD9587030
Probable space group: P 6/M M M
;
_chemical_formula_sum "Si O2"
_cell_formula_units_Z 180
_cell_length_a 26.594108
_cell_length_b 26.594108
_cell_length_c 17.557227
_cell_angle_alpha 90.000000
_cell_angle_beta 90.000000
_cell_angle_gamma 120.000000
_cell_volume 10753.687508
_symmetry_space_group_name_H-M "P 6/M M M"
_symmetry_group_IT_number 191
_symmetry_cell_setting 'hexagonal'
loop_
_space_group_symop_operation_xyz
x,y,z
x-y,x,z
-y,x-y,z
-x,-y,z
-x+y,-x,z
y,-x+y,z
x-y,-y,-z
-x,-x+y,-z
y,x,-z
-y,-x,-z
-x+y,y,-z
x,x-y,-z
-x,-y,-z
-x+y,-x,-z
y,-x+y,-z
x,y,-z
x-y,x,-z
-y,x-y,-z
-x+y,y,z
x,x-y,z
-y,-x,z
y,x,z
x-y,-y,z
-x,-x+y,z
loop_
_atom_site_type_symbol
_atom_site_label
_atom_site_fract_x
_atom_site_fract_y
_atom_site_fract_z
Si Si1 0.786800 0.333552 0.000000
Si Si2 0.732799 0.666513 0.667868
Si Si3 0.938311 0.171091 0.411015
Si Si4 0.453155 0.666484 0.698317
Si Si5 0.238715 0.883058 0.913625
Si Si6 0.186826 0.932573 0.804295
Si Si7 0.838258 0.556634 0.411095
Si Si8 0.701964 0.525393 0.152999
O O1 0.816906 0.327231 0.923907
O O2 0.721522 0.278479 0.000000
O O3 0.785764 0.392882 0.000000
O O4 0.681653 0.681653 0.677126
O O5 0.773266 0.704357 0.597564
O O6 0.777790 0.698652 0.737148
O O7 0.713599 0.601554 0.645769
O O8 0.940447 0.160674 0.500000
O O9 0.884976 0.115025 0.376037
O O10 0.000000 0.188049 0.375732
O O11 0.442344 0.721172 0.706096
O O12 0.393123 0.606878 0.695497
O O13 0.492680 0.678770 0.623544
O O14 0.491150 0.668515 0.771764
O O15 0.180449 0.819552 0.915512
O O16 0.217313 0.924643 0.879231
O O17 0.283696 0.874900 0.860558
O O18 0.260493 0.897753 0.000000
O O19 0.119387 0.880614 0.803673
O O20 0.203511 0.000000 0.798733
O O21 0.855712 0.561606 0.500000
O O22 0.784613 0.569226 0.406663
O O23 0.764304 0.528607 0.159346
#
# Coordination Sequence:
#
# PCOD9587030 Si02
#       8
#    12  24  24  24  24  24  24  24
#     4  10  17  24  36  60  95 131 164 199 242 296
#     4  10  19  31  49  74 100 123 150 188 241 302
#     4   9  16  25  39  60  87 119 151 183 221 267
#     4  10  20  33  49  69  96 132 172 213 255 300
#     4   9  16  29  48  69  96 129 164 203 249 301
#     4  10  20  32  49  74 104 136 168 204 248 297
#     4  10  20  33  50  72  97 127 165 209 257 307
#     4   9  16  27  44  66  93 127 165 204 249 299
#
# _framework density 16.738444000000001
#
# number of rings (size 3 to 8) (size 9 to 14) (size 15 to 20)
#    0.000    2.400    0.667    3.000    0.000    4.533 
#    0.000    1.333    0.000    1.467    0.000    1.867 
#    0.000    5.333    0.000    3.467    0.000    0.000 
#
# Total GULP energy -1002136.055945 kJ/mol
# GULP energy per Si atom -5567.422533 kJ/mol
# Density = 1.670035 g / cm^3
# Si number density = 16.738444 Si / 1000 Ang^3
#
#
#
# Elastic Constant Matrix: (Units=GPa)
#
#
# Indices 1 2 3 4 5 6 
#
# 1 81.7087 39.1295 25.2365 0.0000 0.0000 0.0000
# 2 39.1295 81.7087 25.2365 0.0000 0.0000 0.0000
# 3 25.2365 25.2365 46.7821 0.0000 0.0000 0.0000
# 4 0.0000 0.0000 0.0000 13.6877 0.0000 0.0000
# 5 0.0000 0.0000 0.0000 0.0000 13.6877 0.0000
# 6 0.0000 0.0000 0.0000 0.0000 0.0000 21.2896
#
#
#
# Elastic Compliance Matrix: (Units=1/GPa)
#
#
# Indices 1 2 3 4 5 6 
#
# 1 0.017084 -0.006402 -0.005763 0.000000 0.000000 0.000000
# 2 -0.006402 0.017084 -0.005763 0.000000 0.000000 0.000000
# 3 -0.005763 -0.005763 0.027593 0.000000 0.000000 0.000000
# 4 0.000000 0.000000 0.000000 0.073058 0.000000 0.000000
# 5 0.000000 0.000000 0.000000 0.000000 0.073058 0.000000
# 6 0.000000 0.000000 0.000000 0.000000 0.000000 0.046971
#
#
# Mechanical properties :
#
#
# Convention : Reuss Voigt Hill
#
# Bulk Modulus (GPa) = 38.59896 43.26713 40.93304
# Shear Modulus (GPa) = 16.70351 17.77282 17.23817
#
# Velocity S-wave (km/s) = 3.16240 3.26206 3.21262
# Velocity P-wave (km/s) = 6.03693 6.33191 6.18618
#
# Compressibility (1/GPa) = 0.02590744
#
# Stress axis : x y z
#
# Youngs Moduli (GPa) = 58.53400 58.53400 36.24105
#
# Poissons Ratio (x) = 0.37471 0.20885
# Poissons Ratio (y) = 0.37471 0.20885
# Poissons Ratio (z) = 0.33731 0.33731
#
# Static dielectric constant tensor:
#      x y z
#    x 1.577310 0.000000 0.000000 
#    y 0.000000 1.577310 0.000000 
#    z 0.000000 0.000000 1.627630 
# 
# From -- ./inp_files/6851.got.cif
#   From: 2010.05.17/outbox.cif.g08.bks.cpg/sg191_4_cif.got.tgz:6851.got - 2010.05.20 12:20:32.
