data_PCOD9587031
_publ_section_title
;
Structure prediction by ZEFSAII (Michael W. Deem and Ramdas Pophale) SiO2 
 PCOD9587031
Probable space group: P 6/M M M
;
_chemical_formula_sum "Si O2"
_cell_formula_units_Z 156
_cell_length_a 27.647298
_cell_length_b 27.647298
_cell_length_c 20.473423
_cell_angle_alpha 90.000000
_cell_angle_beta 90.000000
_cell_angle_gamma 120.000000
_cell_volume 13552.720393
_symmetry_space_group_name_H-M "P 6/M M M"
_symmetry_group_IT_number 191
_symmetry_cell_setting 'hexagonal'
loop_
_space_group_symop_operation_xyz
x,y,z
x-y,x,z
-y,x-y,z
-x,-y,z
-x+y,-x,z
y,-x+y,z
x-y,-y,-z
-x,-x+y,-z
y,x,-z
-y,-x,-z
-x+y,y,-z
x,x-y,-z
-x,-y,-z
-x+y,-x,-z
y,-x+y,-z
x,y,-z
x-y,x,-z
-y,x-y,-z
-x+y,y,z
x,x-y,z
-y,-x,z
y,x,z
x-y,-y,z
-x,-x+y,z
loop_
_atom_site_type_symbol
_atom_site_label
_atom_site_fract_x
_atom_site_fract_y
_atom_site_fract_z
Si Si1 0.270358 0.841333 0.925983
Si Si2 0.476977 0.409948 0.429680
Si Si3 0.932364 0.466182 0.075049
Si Si4 0.333493 0.774255 0.095440
Si Si5 0.667012 0.226483 0.252758
Si Si6 0.934440 0.566117 0.849675
Si Si7 0.393484 0.901515 0.287291
O O1 0.207614 0.792387 0.906489
O O2 0.306134 0.809610 0.929140
O O3 0.306299 0.892951 0.877305
O O4 0.268060 0.860159 0.000000
O O5 0.466050 0.379632 0.500000
O O6 0.542327 0.457674 0.428747
O O7 0.442821 0.442821 0.430757
O O8 0.465569 0.381661 0.359243
O O9 0.917082 0.409705 0.113392
O O10 0.000000 0.500000 0.073911
O O11 0.913377 0.456689 0.000000
O O12 0.395657 0.791313 0.074930
O O13 0.290141 0.709860 0.078863
O O14 0.333490 0.778417 0.174199
O O15 0.623726 0.247452 0.269171
O O16 0.728835 0.271166 0.273994
O O17 0.641895 0.164995 0.280151
O O18 0.926965 0.550332 0.773128
O O19 0.000000 0.608303 0.863507
O O20 0.459371 0.918742 0.281583
#
# Coordination Sequence:
#
# PCOD9587031 Si02
#       7
#    24  24  12  24  24  24  24
#     4  10  21  33  41  50  67  91 117 144 173 206
#     4   8  14  24  37  52  69  86 101 120 152 199
#     4   9  18  28  36  50  71  93 113 135 168 208
#     4   9  16  26  37  48  61  80 109 141 172 202
#     4   9  16  25  37  51  66  86 113 144 174 205
#     4  11  20  29  41  56  72  90 112 141 175 210
#     4  10  17  25  38  55  72  89 109 136 170 207
#
# _framework density 11.510604000000001
#
# number of rings (size 3 to 8) (size 9 to 14) (size 15 to 20)
#    0.000    2.538    2.308    1.692    1.077    3.077 
#    0.000    0.000    0.000    1.385    0.000    0.000 
#    0.000    1.231    0.000    0.000    0.000    0.000 
#
# Total GULP energy -868615.756761 kJ/mol
# GULP energy per Si atom -5568.049723 kJ/mol
# Density = 1.148441 g / cm^3
# Si number density = 11.510604 Si / 1000 Ang^3
#
#
#
# Elastic Constant Matrix: (Units=GPa)
#
#
# Indices 1 2 3 4 5 6 
#
# 1 36.9595 13.8128 20.0798 0.0000 0.0000 0.0000
# 2 13.8128 36.9595 20.0798 0.0000 0.0000 0.0000
# 3 20.0798 20.0798 89.6635 0.0000 0.0000 0.0000
# 4 0.0000 0.0000 0.0000 2.3565 0.0000 0.0000
# 5 0.0000 0.0000 0.0000 0.0000 2.3565 0.0000
# 6 0.0000 0.0000 0.0000 0.0000 0.0000 11.5733
#
#
#
# Elastic Compliance Matrix: (Units=1/GPa)
#
#
# Indices 1 2 3 4 5 6 
#
# 1 0.033569 -0.009634 -0.005360 0.000000 0.000000 0.000000
# 2 -0.009634 0.033569 -0.005360 0.000000 0.000000 0.000000
# 3 -0.005360 -0.005360 0.013554 0.000000 0.000000 0.000000
# 4 0.000000 0.000000 0.000000 0.424352 0.000000 0.000000
# 5 0.000000 0.000000 0.000000 0.000000 0.424352 0.000000
# 6 0.000000 0.000000 0.000000 0.000000 0.000000 0.086406
#
#
# Mechanical properties :
#
#
# Convention : Reuss Voigt Hill
#
# Bulk Modulus (GPa) = 25.01019 30.16973 27.58996
# Shear Modulus (GPa) = 4.67360 10.56461 7.61911
#
# Velocity S-wave (km/s) = 2.01719 3.03283 2.57557
# Velocity P-wave (km/s) = 5.21541 6.20737 5.73288
#
# Compressibility (1/GPa) = 0.03998371
#
# Stress axis : x y z
#
# Youngs Moduli (GPa) = 29.78920 29.78920 73.78085
#
# Poissons Ratio (x) = 0.28698 0.39549
# Poissons Ratio (y) = 0.28698 0.39549
# Poissons Ratio (z) = 0.15968 0.15968
#
# Static dielectric constant tensor:
#      x y z
#    x 1.372320 0.000000 0.000000 
#    y 0.000000 1.372320 0.000000 
#    z 0.000000 0.000000 1.411930 
# 
# From -- ./inp_files/8166.got.cif
#   From: 2010.05.17/outbox.cif.g08.bks.cpg/sg191_5_cif.got.tgz:8166.got - 2010.05.20 12:20:32.
