data_PCOD9587751
_publ_section_title
;
Structure prediction by ZEFSAII (Michael W. Deem and Ramdas Pophale) SiO2 
 PCOD9587751
Probable space group: P 6/M M M
;
_chemical_formula_sum "Si O2"
_cell_formula_units_Z 168
_cell_length_a 30.985724
_cell_length_b 30.985724
_cell_length_c 11.594108
_cell_angle_alpha 90.000000
_cell_angle_beta 90.000000
_cell_angle_gamma 120.000000
_cell_volume 9640.315993
_symmetry_space_group_name_H-M "P 6/M M M"
_symmetry_group_IT_number 191
_symmetry_cell_setting 'hexagonal'
loop_
_space_group_symop_operation_xyz
x,y,z
x-y,x,z
-y,x-y,z
-x,-y,z
-x+y,-x,z
y,-x+y,z
x-y,-y,-z
-x,-x+y,-z
y,x,-z
-y,-x,-z
-x+y,y,-z
x,x-y,-z
-x,-y,-z
-x+y,-x,-z
y,-x+y,-z
x,y,-z
x-y,x,-z
-y,x-y,-z
-x+y,y,z
x,x-y,z
-y,-x,z
y,x,z
x-y,-y,z
-x,-x+y,z
loop_
_atom_site_type_symbol
_atom_site_label
_atom_site_fract_x
_atom_site_fract_y
_atom_site_fract_z
Si Si1 0.798040 0.101558 0.719370
Si Si2 0.248844 0.394464 0.127530
Si Si3 0.854027 0.329503 0.730915
Si Si4 0.422188 0.265191 0.500000
Si Si5 0.058950 0.477649 0.135452
Si Si6 0.686643 0.742863 0.500000
Si Si7 0.795093 0.944428 0.138408
Si Si8 0.431818 0.765667 0.362927
O O1 0.844710 0.155291 0.682157
O O2 0.756367 0.110506 0.778932
O O3 0.775079 0.064296 0.613922
O O4 0.818882 0.079334 0.813871
O O5 0.195020 0.390040 0.125396
O O6 0.289197 0.448838 0.168599
O O7 0.260004 0.383286 0.000000
O O8 0.848365 0.298021 0.613595
O O9 0.906402 0.375978 0.773402
O O10 0.814019 0.346912 0.710793
O O11 0.420999 0.210500 0.500000
O O12 0.368004 0.261347 0.500000
O O13 0.065704 0.532852 0.148608
O O14 0.000000 0.438979 0.152268
O O15 0.070837 0.473196 0.000000
O O16 0.695559 0.695559 0.500000
O O17 0.814550 0.907275 0.173664
O O18 0.828592 0.000000 0.181327
O O19 0.793375 0.945072 0.000000
O O20 0.441618 0.776899 0.500000
O O21 0.374452 0.748904 0.344142
O O22 0.442609 0.721305 0.336591
#
# Coordination Sequence:
#
# PCOD9587751 Si02
#       8
#    24  24  24  12  24  12  24  24
#     4  10  19  34  53  72 102 139 175 217 272 326
#     4  10  20  33  52  79 107 137 177 225 273 323
#     4  12  21  35  59  85 113 147 195 232 271 333
#     4  12  24  40  57  78 118 163 191 226 292 352
#     4   9  20  41  65  87 116 154 194 241 297 346
#     4  12  24  36  52  75 106 145 191 230 266 326
#     4   9  17  30  49  72  98 130 169 214 263 314
#     4  10  20  34  54  81 113 147 184 227 276 330
#
# _framework density 17.426815000000001
#
# number of rings (size 3 to 8) (size 9 to 14) (size 15 to 20)
#    0.000    1.714    2.143    4.214    0.000    2.857 
#    0.000    0.000    0.000    3.571    0.000    1.000 
#    0.000    6.857    0.000    0.000    0.000   14.857 
#
# Total GULP energy -935931.762148 kJ/mol
# GULP energy per Si atom -5571.022394 kJ/mol
# Density = 1.738715 g / cm^3
# Si number density = 17.426815 Si / 1000 Ang^3
#
#
#
# Elastic Constant Matrix: (Units=GPa)
#
#
# Indices 1 2 3 4 5 6 
#
# 1 69.6818 25.6124 28.1847 0.0000 0.0000 0.0000
# 2 25.6124 69.6818 28.1847 0.0000 0.0000 0.0000
# 3 28.1847 28.1847 64.5522 0.0000 0.0000 0.0000
# 4 0.0000 0.0000 0.0000 24.4446 0.0000 0.0000
# 5 0.0000 0.0000 0.0000 0.0000 24.4446 0.0000
# 6 0.0000 0.0000 0.0000 0.0000 0.0000 22.0347
#
#
#
# Elastic Compliance Matrix: (Units=1/GPa)
#
#
# Indices 1 2 3 4 5 6 
#
# 1 0.018420 -0.004272 -0.006177 0.000000 0.000000 0.000000
# 2 -0.004272 0.018420 -0.006177 0.000000 0.000000 0.000000
# 3 -0.006177 -0.006177 0.020886 0.000000 0.000000 0.000000
# 4 0.000000 0.000000 0.000000 0.040909 0.000000 0.000000
# 5 0.000000 0.000000 0.000000 0.000000 0.040909 0.000000
# 6 0.000000 0.000000 0.000000 0.000000 0.000000 0.045383
#
#
# Mechanical properties :
#
#
# Convention : Reuss Voigt Hill
#
# Bulk Modulus (GPa) = 40.86247 40.87549 40.86898
# Shear Modulus (GPa) = 22.09113 22.31373 22.20243
#
# Velocity S-wave (km/s) = 3.56427 3.58218 3.57324
# Velocity P-wave (km/s) = 6.35906 6.37305 6.36606
#
# Compressibility (1/GPa) = 0.02447233
#
# Stress axis : x y z
#
# Youngs Moduli (GPa) = 54.28986 54.28986 47.88011
#
# Poissons Ratio (x) = 0.23192 0.29576
# Poissons Ratio (y) = 0.23192 0.29576
# Poissons Ratio (z) = 0.33536 0.33536
#
# Static dielectric constant tensor:
#      x y z
#    x 1.606310 0.000000 0.000000 
#    y 0.000000 1.606310 0.000000 
#    z 0.000000 0.000000 1.609020 
# 
# From -- ./inp_files/3657.got.cif
#   From: 2010.05.17/outbox.cif.g08.bks.cpg/sg191_2_cif.got.tgz:3657.got - 2010.05.20 12:20:32.
