data_PCOD9587081
_publ_section_title
;
Structure prediction by ZEFSAII (Michael W. Deem and Ramdas Pophale) SiO2 
 PCOD9587081
Probable space group: P 6/M M M
;
_chemical_formula_sum "Si O2"
_cell_formula_units_Z 84
_cell_length_a 19.215060
_cell_length_b 19.215060
_cell_length_c 17.650093
_cell_angle_alpha 90.000000
_cell_angle_beta 90.000000
_cell_angle_gamma 120.000000
_cell_volume 5643.663607
_symmetry_space_group_name_H-M "P 6/M M M"
_symmetry_group_IT_number 191
_symmetry_cell_setting 'hexagonal'
loop_
_space_group_symop_operation_xyz
x,y,z
x-y,x,z
-y,x-y,z
-x,-y,z
-x+y,-x,z
y,-x+y,z
x-y,-y,-z
-x,-x+y,-z
y,x,-z
-y,-x,-z
-x+y,y,-z
x,x-y,-z
-x,-y,-z
-x+y,-x,-z
y,-x+y,-z
x,y,-z
x-y,x,-z
-y,x-y,-z
-x+y,y,z
x,x-y,z
-y,-x,z
y,x,z
x-y,-y,z
-x,-x+y,z
loop_
_atom_site_type_symbol
_atom_site_label
_atom_site_fract_x
_atom_site_fract_y
_atom_site_fract_z
Si Si1 0.331989 0.828649 0.683751
Si Si2 0.168961 0.500546 0.000000
Si Si3 0.908839 0.538734 0.842320
Si Si4 0.657407 0.748943 0.591103
O O1 0.420334 0.840668 0.672122
O O2 0.263817 0.736184 0.672841
O O3 0.326697 0.854955 0.769626
O O4 0.310191 0.881503 0.628777
O O5 0.125598 0.454853 0.077011
O O6 0.259126 0.518251 0.000000
O O7 0.168453 0.584227 0.000000
O O8 0.911072 0.455536 0.845837
O O9 0.000000 0.608882 0.830930
O O10 0.649603 0.743303 0.500000
O O11 0.679097 0.839549 0.612519
O O12 0.720916 0.720916 0.613072
#
# Coordination Sequence:
#
# PCOD9587081 Si02
#       4
#    24  12  24  24
#     4  10  19  30  44  63  88 117 149 184 220 257
#     4  10  18  27  39  55  76 101 130 166 211 262
#     4   9  17  28  41  56  75 102 137 176 215 255
#     4   9  18  32  49  68  89 114 144 178 217 261
#
# _framework density 14.883948999999999
#
# number of rings (size 3 to 8) (size 9 to 14) (size 15 to 20)
#    0.000    2.571    0.000    2.571    0.000    4.000 
#    0.000    4.286    0.000    2.000    0.000    2.000 
#    0.000    0.000    0.000    0.000    0.000    0.000 
#
# Total GULP energy -467842.635885 kJ/mol
# GULP energy per Si atom -5569.555189 kJ/mol
# Density = 1.485007 g / cm^3
# Si number density = 14.883949 Si / 1000 Ang^3
#
#
#
# Elastic Constant Matrix: (Units=GPa)
#
#
# Indices 1 2 3 4 5 6 
#
# 1 72.7518 54.6413 27.4882 0.0000 0.0000 0.0000
# 2 54.6413 72.7518 27.4882 0.0000 0.0000 0.0000
# 3 27.4882 27.4882 35.3198 0.0000 0.0000 0.0000
# 4 0.0000 0.0000 0.0000 19.0174 0.0000 0.0000
# 5 0.0000 0.0000 0.0000 0.0000 19.0174 0.0000
# 6 0.0000 0.0000 0.0000 0.0000 0.0000 9.0552
#
#
#
# Elastic Compliance Matrix: (Units=1/GPa)
#
#
# Indices 1 2 3 4 5 6 
#
# 1 0.033518 -0.021699 -0.009199 0.000000 0.000000 0.000000
# 2 -0.021699 0.033518 -0.009199 0.000000 0.000000 0.000000
# 3 -0.009199 -0.009199 0.042631 0.000000 0.000000 0.000000
# 4 0.000000 0.000000 0.000000 0.052583 0.000000 0.000000
# 5 0.000000 0.000000 0.000000 0.000000 0.052583 0.000000
# 6 0.000000 0.000000 0.000000 0.000000 0.000000 0.110433
#
#
# Mechanical properties :
#
#
# Convention : Reuss Voigt Hill
#
# Bulk Modulus (GPa) = 33.92708 44.45098 39.18903
# Shear Modulus (GPa) = 12.03998 14.16507 13.10252
#
# Velocity S-wave (km/s) = 2.84724 3.08831 2.97022
# Velocity P-wave (km/s) = 5.80112 6.53045 6.17656
#
# Compressibility (1/GPa) = 0.02947498
#
# Stress axis : x y z
#
# Youngs Moduli (GPa) = 29.83473 29.83473 23.45729
#
# Poissons Ratio (x) = 0.64737 0.21577
# Poissons Ratio (y) = 0.64737 0.21577
# Poissons Ratio (z) = 0.27444 0.27444
#
# Static dielectric constant tensor:
#      x y z
#    x 1.485240 0.000000 0.000000 
#    y 0.000000 1.485240 0.000000 
#    z 0.000000 0.000000 1.503830 
# 
# From -- ./inp_files/3986.got.cif
#   From: 2010.05.17/outbox.cif.g08.bks.cpg/sg191_2_cif.got.tgz:3986.got - 2010.05.20 12:20:32.
