data_PCOD9587286
_publ_section_title
;
Structure prediction by ZEFSAII (Michael W. Deem and Ramdas Pophale) SiO2 
 PCOD9587286
Probable space group: P 6/M M M
;
_chemical_formula_sum "Si O2"
_cell_formula_units_Z 144
_cell_length_a 21.730738
_cell_length_b 21.730738
_cell_length_c 23.500746
_cell_angle_alpha 90.000000
_cell_angle_beta 90.000000
_cell_angle_gamma 120.000000
_cell_volume 9610.837443
_symmetry_space_group_name_H-M "P 6/M M M"
_symmetry_group_IT_number 191
_symmetry_cell_setting 'hexagonal'
loop_
_space_group_symop_operation_xyz
x,y,z
x-y,x,z
-y,x-y,z
-x,-y,z
-x+y,-x,z
y,-x+y,z
x-y,-y,-z
-x,-x+y,-z
y,x,-z
-y,-x,-z
-x+y,y,-z
x,x-y,-z
-x,-y,-z
-x+y,-x,-z
y,-x+y,-z
x,y,-z
x-y,x,-z
-y,x-y,-z
-x+y,y,z
x,x-y,z
-y,-x,z
y,x,z
x-y,-y,z
-x,-x+y,z
loop_
_atom_site_type_symbol
_atom_site_label
_atom_site_fract_x
_atom_site_fract_y
_atom_site_fract_z
Si Si1 0.163434 0.081717 0.930737
Si Si2 0.921514 0.221263 0.738264
Si Si3 0.916738 0.619349 0.854134
Si Si4 0.835383 0.164618 0.067990
Si Si5 0.813991 0.479138 0.208186
Si Si6 0.519732 0.333891 0.435899
Si Si7 0.294736 0.440773 0.323805
O O1 0.123268 0.123268 0.911418
O O2 0.245923 0.122962 0.914772
O O3 0.161108 0.080554 0.000000
O O4 0.858388 0.141613 0.730271
O O5 0.912636 0.248993 0.799947
O O6 0.911261 0.272579 0.694183
O O7 0.000000 0.233986 0.734020
O O8 0.878565 0.635487 0.905542
O O9 0.870783 0.537612 0.834883
O O10 0.000000 0.648160 0.864576
O O11 0.833334 0.166667 0.000000
O O12 0.739807 0.479613 0.203374
O O13 0.803098 0.401549 0.199170
O O14 0.844510 0.506924 0.271774
O O15 0.493583 0.334333 0.500000
O O16 0.528115 0.264058 0.431652
O O17 0.596286 0.403715 0.429249
O O18 0.469120 0.329927 0.384739
O O19 0.220109 0.440218 0.324864
#
# Coordination Sequence:
#
# PCOD9587286 Si02
#       7
#    12  24  24  12  24  24  24
#     4   9  17  28  43  66  96 128 158 185 213 248
#     4   9  16  29  49  68  89 116 146 184 227 268
#     4  10  19  33  50  72 100 124 151 189 230 275
#     4  11  20  33  52  73  96 124 157 187 220 273
#     4  10  18  30  48  71  96 122 157 202 251 290
#     4   9  15  22  34  55  87 126 162 191 221 261
#     4   8  15  26  40  63  91 118 153 194 231 268
#
# _framework density 14.983086
#
# number of rings (size 3 to 8) (size 9 to 14) (size 15 to 20)
#    0.000    2.667    1.667    2.417    0.000    2.333 
#    0.000    1.667    0.000    2.667    0.000    2.333 
#    0.000    0.000    0.000    0.000    0.000    0.000 
#
# Total GULP energy -801996.220726 kJ/mol
# GULP energy per Si atom -5569.418199 kJ/mol
# Density = 1.494898 g / cm^3
# Si number density = 14.983086 Si / 1000 Ang^3
#
#
#
# Elastic Constant Matrix: (Units=GPa)
#
#
# Indices 1 2 3 4 5 6 
#
# 1 77.6565 36.2136 29.1861 0.0000 0.0000 0.0000
# 2 36.2136 77.6565 29.1861 0.0000 0.0000 0.0000
# 3 29.1861 29.1861 76.9818 0.0000 0.0000 0.0000
# 4 0.0000 0.0000 0.0000 10.9994 0.0000 0.0000
# 5 0.0000 0.0000 0.0000 0.0000 10.9994 0.0000
# 6 0.0000 0.0000 0.0000 0.0000 0.0000 20.7215
#
#
#
# Elastic Compliance Matrix: (Units=1/GPa)
#
#
# Indices 1 2 3 4 5 6 
#
# 1 0.017515 -0.006615 -0.004133 0.000000 0.000000 0.000000
# 2 -0.006615 0.017515 -0.004133 0.000000 0.000000 0.000000
# 3 -0.004133 -0.004133 0.016124 0.000000 0.000000 0.000000
# 4 0.000000 0.000000 0.000000 0.090914 0.000000 0.000000
# 5 0.000000 0.000000 0.000000 0.000000 0.090914 0.000000
# 6 0.000000 0.000000 0.000000 0.000000 0.000000 0.048259
#
#
# Mechanical properties :
#
#
# Convention : Reuss Voigt Hill
#
# Bulk Modulus (GPa) = 46.74233 46.82958 46.78595
# Shear Modulus (GPa) = 15.71679 17.72469 16.72074
#
# Velocity S-wave (km/s) = 3.24229 3.44318 3.34424
# Velocity P-wave (km/s) = 6.72912 6.86514 6.79747
#
# Compressibility (1/GPa) = 0.02139389
#
# Stress axis : x y z
#
# Youngs Moduli (GPa) = 57.09395 57.09395 62.02041
#
# Poissons Ratio (x) = 0.37765 0.25631
# Poissons Ratio (y) = 0.37765 0.25631
# Poissons Ratio (z) = 0.23595 0.23595
#
# Static dielectric constant tensor:
#      x y z
#    x 1.490250 0.000000 0.000000 
#    y 0.000000 1.490250 0.000000 
#    z 0.000000 0.000000 1.506580 
# 
# From -- ./inp_files/8948.got.cif
#   From: 2010.05.17/outbox.cif.g08.bks.cpg/sg191_5_cif.got.tgz:8948.got - 2010.05.20 12:20:32.
