data_PCOD9587804
_publ_section_title
;
Structure prediction by ZEFSAII (Michael W. Deem and Ramdas Pophale) SiO2 
 PCOD9587804
Probable space group: P 6/M M M
;
_chemical_formula_sum "Si O2"
_cell_formula_units_Z 132
_cell_length_a 18.187432
_cell_length_b 18.187432
_cell_length_c 28.435796
_cell_angle_alpha 90.000000
_cell_angle_beta 90.000000
_cell_angle_gamma 120.000000
_cell_volume 8145.894606
_symmetry_space_group_name_H-M "P 6/M M M"
_symmetry_group_IT_number 191
_symmetry_cell_setting 'hexagonal'
loop_
_space_group_symop_operation_xyz
x,y,z
x-y,x,z
-y,x-y,z
-x,-y,z
-x+y,-x,z
y,-x+y,z
x-y,-y,-z
-x,-x+y,-z
y,x,-z
-y,-x,-z
-x+y,y,-z
x,x-y,-z
-x,-y,-z
-x+y,-x,-z
y,-x+y,-z
x,y,-z
x-y,x,-z
-y,x-y,-z
-x+y,y,z
x,x-y,z
-y,-x,z
y,x,z
x-y,-y,z
-x,-x+y,z
loop_
_atom_site_type_symbol
_atom_site_label
_atom_site_fract_x
_atom_site_fract_y
_atom_site_fract_z
Si Si1 0.364505 0.098339 0.588770
Si Si2 0.467851 0.102527 0.500000
Si Si3 0.737617 0.640088 0.861360
Si Si4 0.333924 0.494624 0.219146
Si Si5 0.505291 0.839064 0.328530
Si Si6 0.364958 0.467995 0.052983
O O1 0.332463 0.166232 0.589508
O O2 0.432214 0.124149 0.546307
O O3 0.416953 0.109469 0.636446
O O4 0.293662 0.000000 0.582502
O O5 0.568255 0.136509 0.500000
O O6 0.421925 0.000000 0.500000
O O7 0.836891 0.673782 0.856487
O O8 0.710860 0.710860 0.867021
O O9 0.690560 0.582403 0.816050
O O10 0.702445 0.577260 0.906223
O O11 0.258569 0.517138 0.214785
O O12 0.424019 0.575982 0.207342
O O13 0.336120 0.472563 0.273858
O O14 0.424488 0.848975 0.340575
O O15 0.481336 0.740668 0.332609
O O16 0.433904 0.566097 0.062895
O O17 0.418608 0.418608 0.052486
O O18 0.331139 0.461625 0.000000
#
# Coordination Sequence:
#
# PCOD9587804 Si02
#       6
#    24  12  24  24  24  24
#     4  10  20  33  49  69  93 122 157 197 239 278
#     4   9  17  30  49  72  96 120 146 177 215 264
#     4  10  20  32  46  65  89 117 151 192 235 275
#     4   9  17  29  46  69  97 126 152 178 213 262
#     4   9  17  29  46  69  97 127 155 182 215 260
#     4   8  14  26  45  68  92 116 141 170 207 255
#
# _framework density 16.204481000000001
#
# number of rings (size 3 to 8) (size 9 to 14) (size 15 to 20)
#    0.000    2.818    0.000    2.273    0.000    4.727 
#    0.000    1.818    0.000    3.273    0.000    0.000 
#    0.000    2.182    0.000   13.636    0.000    0.000 
#
# Total GULP energy -735589.162292 kJ/mol
# GULP energy per Si atom -5572.645169 kJ/mol
# Density = 1.616760 g / cm^3
# Si number density = 16.204481 Si / 1000 Ang^3
#
#
#
# Elastic Constant Matrix: (Units=GPa)
#
#
# Indices 1 2 3 4 5 6 
#
# 1 70.9574 52.8285 35.3058 0.0000 0.0000 0.0000
# 2 52.8285 70.9574 35.3058 0.0000 0.0000 0.0000
# 3 35.3058 35.3058 63.7967 0.0000 0.0000 0.0000
# 4 0.0000 0.0000 0.0000 18.1410 0.0000 0.0000
# 5 0.0000 0.0000 0.0000 0.0000 18.1410 0.0000
# 6 0.0000 0.0000 0.0000 0.0000 0.0000 9.0644
#
#
#
# Elastic Compliance Matrix: (Units=1/GPa)
#
#
# Indices 1 2 3 4 5 6 
#
# 1 0.033483 -0.021678 -0.006533 0.000000 0.000000 0.000000
# 2 -0.021678 0.033483 -0.006533 0.000000 0.000000 0.000000
# 3 -0.006533 -0.006533 0.022906 0.000000 0.000000 0.000000
# 4 0.000000 0.000000 0.000000 0.055124 0.000000 0.000000
# 5 0.000000 0.000000 0.000000 0.000000 0.055124 0.000000
# 6 0.000000 0.000000 0.000000 0.000000 0.000000 0.110321
#
#
# Mechanical properties :
#
#
# Convention : Reuss Voigt Hill
#
# Bulk Modulus (GPa) = 49.05884 50.28794 49.67339
# Shear Modulus (GPa) = 12.92917 14.55406 13.74162
#
# Velocity S-wave (km/s) = 2.82774 3.00017 2.91523
# Velocity P-wave (km/s) = 6.40328 6.56522 6.48475
#
# Compressibility (1/GPa) = 0.02038369
#
# Stress axis : x y z
#
# Youngs Moduli (GPa) = 29.86603 29.86603 43.65716
#
# Poissons Ratio (x) = 0.64743 0.28522
# Poissons Ratio (y) = 0.64743 0.28522
# Poissons Ratio (z) = 0.19512 0.19512
#
# Static dielectric constant tensor:
#      x y z
#    x 1.535150 0.000000 0.000000 
#    y 0.000000 1.535150 0.000000 
#    z 0.000000 0.000000 1.562860 
# 
# From -- ./inp_files/8700.got.cif
#   From: 2010.05.17/outbox.cif.g08.bks.cpg/sg191_5_cif.got.tgz:8700.got - 2010.05.20 12:20:32.
