data_PCOD9587308
_publ_section_title
;
Structure prediction by ZEFSAII (Michael W. Deem and Ramdas Pophale) SiO2 
 PCOD9587308
Probable space group: P 6/M M M
;
_chemical_formula_sum "Si O2"
_cell_formula_units_Z 120
_cell_length_a 21.229336
_cell_length_b 21.229336
_cell_length_c 18.958999
_cell_angle_alpha 90.000000
_cell_angle_beta 90.000000
_cell_angle_gamma 120.000000
_cell_volume 7399.780831
_symmetry_space_group_name_H-M "P 6/M M M"
_symmetry_group_IT_number 191
_symmetry_cell_setting 'hexagonal'
loop_
_space_group_symop_operation_xyz
x,y,z
x-y,x,z
-y,x-y,z
-x,-y,z
-x+y,-x,z
y,-x+y,z
x-y,-y,-z
-x,-x+y,-z
y,x,-z
-y,-x,-z
-x+y,y,-z
x,x-y,-z
-x,-y,-z
-x+y,-x,-z
y,-x+y,-z
x,y,-z
x-y,x,-z
-y,x-y,-z
-x+y,y,z
x,x-y,z
-y,-x,z
y,x,z
x-y,-y,z
-x,-x+y,z
loop_
_atom_site_type_symbol
_atom_site_label
_atom_site_fract_x
_atom_site_fract_y
_atom_site_fract_z
Si Si1 0.914267 0.353115 0.862729
Si Si2 0.309916 0.230968 0.500000
Si Si3 0.478425 0.663891 0.268335
Si Si4 0.879988 0.609869 0.357002
Si Si5 0.225759 0.304628 0.211679
Si Si6 0.516643 0.181938 0.000000
O O1 0.869171 0.360344 0.797956
O O2 0.913032 0.277998 0.844636
O O3 0.000000 0.414684 0.866006
O O4 0.868793 0.345782 0.932429
O O5 0.237524 0.237524 0.500000
O O6 0.297495 0.148747 0.500000
O O7 0.355522 0.272616 0.430445
O O8 0.488039 0.744020 0.255424
O O9 0.395107 0.604894 0.279725
O O10 0.529269 0.669197 0.334085
O O11 0.802886 0.605772 0.363019
O O12 0.917331 0.659871 0.288558
O O13 0.145325 0.290649 0.206474
O O14 0.235282 0.235282 0.203451
O O15 0.600675 0.201350 0.000000
O O16 0.511537 0.255769 0.000000
#
# Coordination Sequence:
#
# PCOD9587308 Si02
#       6
#    24  12  24  24  24  12
#     4  10  21  35  51  70  94 124 157 196 237 277
#     4  10  18  30  49  72  97 125 159 199 244 290
#     4  10  19  33  52  73  97 125 159 196 238 288
#     4   8  16  29  45  66  92 122 155 192 230 272
#     4   9  16  29  48  69  92 120 155 191 230 275
#     4  12  24  37  51  69  96 127 159 193 233 280
#
# _framework density 16.216695999999999
#
# number of rings (size 3 to 8) (size 9 to 14) (size 15 to 20)
#    0.000    2.400    0.000    4.800    0.000    2.800 
#    0.000    2.500    0.000    0.900    0.000    1.400 
#    0.000    4.800    0.000    0.000    0.000   21.200 
#
# Total GULP energy -668135.547303 kJ/mol
# GULP energy per Si atom -5567.796228 kJ/mol
# Density = 1.617979 g / cm^3
# Si number density = 16.216696 Si / 1000 Ang^3
#
#
#
# Elastic Constant Matrix: (Units=GPa)
#
#
# Indices 1 2 3 4 5 6 
#
# 1 90.8632 62.4467 36.2719 0.0000 0.0000 0.0000
# 2 62.4467 90.8632 36.2719 0.0000 0.0000 0.0000
# 3 36.2719 36.2719 87.7910 0.0000 0.0000 0.0000
# 4 0.0000 0.0000 0.0000 9.5615 0.0000 0.0000
# 5 0.0000 0.0000 0.0000 0.0000 9.5615 0.0000
# 6 0.0000 0.0000 0.0000 0.0000 0.0000 14.2082
#
#
#
# Elastic Compliance Matrix: (Units=1/GPa)
#
#
# Indices 1 2 3 4 5 6 
#
# 1 0.021649 -0.013542 -0.003350 0.000000 0.000000 0.000000
# 2 -0.013542 0.021649 -0.003350 0.000000 0.000000 0.000000
# 3 -0.003350 -0.003350 0.014159 0.000000 0.000000 0.000000
# 4 0.000000 0.000000 0.000000 0.104587 0.000000 0.000000
# 5 0.000000 0.000000 0.000000 0.000000 0.104587 0.000000
# 6 0.000000 0.000000 0.000000 0.000000 0.000000 0.070382
#
#
# Mechanical properties :
#
#
# Convention : Reuss Voigt Hill
#
# Bulk Modulus (GPa) = 58.91009 59.94427 59.42718
# Shear Modulus (GPa) = 13.04961 15.63468 14.34214
#
# Velocity S-wave (km/s) = 2.83980 3.10838 2.97712
# Velocity P-wave (km/s) = 6.86719 7.06594 6.96727
#
# Compressibility (1/GPa) = 0.01697502
#
# Stress axis : x y z
#
# Youngs Moduli (GPa) = 46.19074 46.19074 70.62770
#
# Poissons Ratio (x) = 0.62549 0.23659
# Poissons Ratio (y) = 0.62549 0.23659
# Poissons Ratio (z) = 0.15473 0.15473
#
# Static dielectric constant tensor:
#      x y z
#    x 1.554700 0.000000 0.000000 
#    y 0.000000 1.554700 0.000000 
#    z 0.000000 0.000000 1.554360 
# 
# From -- ./inp_files/6262.got.cif
#   From: 2010.05.17/outbox.cif.g08.bks.cpg/sg191_4_cif.got.tgz:6262.got - 2010.05.20 12:20:32.
