data_PCOD9587677
_publ_section_title
;
Structure prediction by ZEFSAII (Michael W. Deem and Ramdas Pophale) SiO2 
 PCOD9587677
Probable space group: P 6/M M M
;
_chemical_formula_sum "Si O2"
_cell_formula_units_Z 168
_cell_length_a 22.249842
_cell_length_b 22.249842
_cell_length_c 25.522910
_cell_angle_alpha 90.000000
_cell_angle_beta 90.000000
_cell_angle_gamma 120.000000
_cell_volume 10942.452836
_symmetry_space_group_name_H-M "P 6/M M M"
_symmetry_group_IT_number 191
_symmetry_cell_setting 'hexagonal'
loop_
_space_group_symop_operation_xyz
x,y,z
x-y,x,z
-y,x-y,z
-x,-y,z
-x+y,-x,z
y,-x+y,z
x-y,-y,-z
-x,-x+y,-z
y,x,-z
-y,-x,-z
-x+y,y,-z
x,x-y,-z
-x,-y,-z
-x+y,-x,-z
y,-x+y,-z
x,y,-z
x-y,x,-z
-y,x-y,-z
-x+y,y,z
x,x-y,z
-y,-x,z
y,x,z
x-y,-y,z
-x,-x+y,z
loop_
_atom_site_type_symbol
_atom_site_label
_atom_site_fract_x
_atom_site_fract_y
_atom_site_fract_z
Si Si1 0.808341 0.475481 0.561495
Si Si2 0.612427 0.532276 0.648838
Si Si3 0.354214 0.435019 0.940570
Si Si4 0.212132 0.921655 0.206936
Si Si5 0.527363 0.192968 0.144629
Si Si6 0.215142 0.922114 0.080299
Si Si7 0.707262 0.554814 0.748829
O O1 0.824534 0.492551 0.500000
O O2 0.739336 0.478672 0.574208
O O3 0.793884 0.396942 0.568604
O O4 0.872251 0.524017 0.598841
O O5 0.540247 0.459754 0.653308
O O6 0.591693 0.591693 0.643573
O O7 0.657508 0.542123 0.700333
O O8 0.407860 0.407860 0.927889
O O9 0.354330 0.487890 0.898606
O O10 0.277988 0.366253 0.938981
O O11 0.367974 0.462489 0.000000
O O12 0.133265 0.866736 0.221279
O O13 0.217513 0.920331 0.143757
O O14 0.259869 0.893418 0.230807
O O15 0.239181 0.000000 0.223360
O O16 0.607690 0.215380 0.144715
O O17 0.516455 0.258228 0.133765
O O18 0.494447 0.163756 0.201615
O O19 0.140747 0.859254 0.063656
O O20 0.234480 0.000000 0.065080
O O21 0.772029 0.544057 0.734320
#
# Coordination Sequence:
#
# PCOD9587677 Si02
#       7
#    24  24  24  24  24  24  24
#     4   9  17  30  48  68  90 119 157 198 235 270
#     4  10  20  31  44  66  95 124 152 185 230 283
#     4  10  21  36  54  74  93 115 148 192 236 275
#     4   9  16  27  45  67  90 116 147 183 222 266
#     4  11  23  38  54  72  95 124 154 186 228 281
#     4   9  16  28  46  68  91 115 145 180 221 265
#     4  10  19  32  50  69  90 118 155 196 231 266
#
# _framework density 15.353047999999999
#
# number of rings (size 3 to 8) (size 9 to 14) (size 15 to 20)
#    0.000    2.286    1.429    2.000    0.000    3.143 
#    0.000    2.143    0.000    5.714    0.000    2.000 
#    0.000    0.000    0.000    3.571    0.000    3.714 
#
# Total GULP energy -937130.346136 kJ/mol
# GULP energy per Si atom -5578.156822 kJ/mol
# Density = 1.531810 g / cm^3
# Si number density = 15.353048 Si / 1000 Ang^3
#
#
#
# Elastic Constant Matrix: (Units=GPa)
#
#
# Indices 1 2 3 4 5 6 
#
# 1 74.3893 34.9777 52.0114 0.0000 0.0000 0.0000
# 2 34.9777 74.3893 52.0114 0.0000 0.0000 0.0000
# 3 52.0114 52.0114 88.1658 0.0000 0.0000 0.0000
# 4 0.0000 0.0000 0.0000 2.6262 0.0000 0.0000
# 5 0.0000 0.0000 0.0000 0.0000 2.6262 0.0000
# 6 0.0000 0.0000 0.0000 0.0000 0.0000 19.7058
#
#
#
# Elastic Compliance Matrix: (Units=1/GPa)
#
#
# Indices 1 2 3 4 5 6 
#
# 1 0.023103 -0.002270 -0.012290 0.000000 0.000000 0.000000
# 2 -0.002270 0.023103 -0.012290 0.000000 0.000000 0.000000
# 3 -0.012290 -0.012290 0.025842 0.000000 0.000000 0.000000
# 4 0.000000 0.000000 0.000000 0.380785 0.000000 0.000000
# 5 0.000000 0.000000 0.000000 0.000000 0.380785 0.000000
# 6 0.000000 0.000000 0.000000 0.000000 0.000000 0.050747
#
#
# Mechanical properties :
#
#
# Convention : Reuss Voigt Hill
#
# Bulk Modulus (GPa) = 54.49961 57.21617 55.85789
# Shear Modulus (GPa) = 5.29559 11.52121 8.40840
#
# Velocity S-wave (km/s) = 1.85922 2.74235 2.34277
# Velocity P-wave (km/s) = 6.33905 6.88296 6.61660
#
# Compressibility (1/GPa) = 0.01834876
#
# Stress axis : x y z
#
# Youngs Moduli (GPa) = 43.28432 43.28432 38.69595
#
# Poissons Ratio (x) = 0.09826 0.47557
# Poissons Ratio (y) = 0.09826 0.47557
# Poissons Ratio (z) = 0.53196 0.53196
#
# Static dielectric constant tensor:
#      x y z
#    x 1.504360 0.000000 0.000000 
#    y 0.000000 1.504360 0.000000 
#    z 0.000000 0.000000 1.503950 
# 
# From -- ./inp_files/8975.got.cif
#   From: 2010.05.17/outbox.cif.g08.bks.cpg/sg191_5_cif.got.tgz:8975.got - 2010.05.20 12:20:32.
