data_PCOD9587768
_publ_section_title
;
Structure prediction by ZEFSAII (Michael W. Deem and Ramdas Pophale) SiO2 
 PCOD9587768
Probable space group: P 6/M M M
;
_chemical_formula_sum "Si O2"
_cell_formula_units_Z 124
_cell_length_a 22.424805
_cell_length_b 22.424805
_cell_length_c 17.754383
_cell_angle_alpha 90.000000
_cell_angle_beta 90.000000
_cell_angle_gamma 120.000000
_cell_volume 7732.030642
_symmetry_space_group_name_H-M "P 6/M M M"
_symmetry_group_IT_number 191
_symmetry_cell_setting 'hexagonal'
loop_
_space_group_symop_operation_xyz
x,y,z
x-y,x,z
-y,x-y,z
-x,-y,z
-x+y,-x,z
y,-x+y,z
x-y,-y,-z
-x,-x+y,-z
y,x,-z
-y,-x,-z
-x+y,y,-z
x,x-y,-z
-x,-y,-z
-x+y,-x,-z
y,-x+y,-z
x,y,-z
x-y,x,-z
-y,x-y,-z
-x+y,y,z
x,x-y,z
-y,-x,z
y,x,z
x-y,-y,z
-x,-x+y,z
loop_
_atom_site_type_symbol
_atom_site_label
_atom_site_fract_x
_atom_site_fract_y
_atom_site_fract_z
Si Si1 0.691111 0.611712 0.587082
Si Si2 0.254921 0.745080 0.911070
Si Si3 0.301203 0.081076 0.274303
Si Si4 0.333334 0.666667 0.907887
Si Si5 0.000000 0.429562 0.086566
Si Si6 0.439767 0.122122 0.183875
Si Si7 0.810264 0.476066 0.665057
O O1 0.711918 0.626133 0.500000
O O2 0.629957 0.629957 0.599427
O O3 0.750959 0.661845 0.644595
O O4 0.669860 0.533610 0.607008
O O5 0.294082 0.705919 0.881785
O O6 0.287987 0.820234 0.878927
O O7 0.256720 0.743281 0.000000
O O8 0.279530 0.139765 0.267454
O O9 0.363742 0.099491 0.215592
O O10 0.243592 0.000000 0.265879
O O11 0.333334 0.666667 0.000000
O O12 0.062018 0.441284 0.139600
O O13 0.000000 0.500000 0.078825
O O14 0.000000 0.404944 0.000000
O O15 0.491325 0.154230 0.254552
O O16 0.736404 0.472807 0.661728
O O17 0.803053 0.401527 0.654530
#
# Coordination Sequence:
#
# PCOD9587768 Si02
#       7
#    24  12  24   4  12  24  24
#     4   9  19  36  57  81 106 133 173 222 265 309
#     4  11  22  36  54  74 100 137 179 227 274 316
#     4  10  19  35  58  83 111 140 175 215 264 315
#     4   9  24  36  48  75 102 138 187 227 274 330
#     4  11  24  36  50  74 105 137 170 216 277 334
#     4  11  20  37  54  74 101 134 176 223 268 317
#     4  11  23  36  52  74 100 137 178 218 265 318
#
# _framework density 16.037184
#
# number of rings (size 3 to 8) (size 9 to 14) (size 15 to 20)
#    0.000    1.645    2.903    3.097    4.065    2.323 
#    0.000    0.968    0.000    1.355    0.000    0.000 
#    0.000    0.000    0.000    4.839    0.000    2.129 
#
# Total GULP energy -691001.710625 kJ/mol
# GULP energy per Si atom -5572.594441 kJ/mol
# Density = 1.600068 g / cm^3
# Si number density = 16.037184 Si / 1000 Ang^3
#
#
#
# Elastic Constant Matrix: (Units=GPa)
#
#
# Indices 1 2 3 4 5 6 
#
# 1 127.1388 69.9392 36.8833 0.0000 0.0000 0.0000
# 2 69.9392 127.1387 36.8834 0.0002 0.0000 0.0000
# 3 36.8833 36.8834 78.0312 0.0002 0.0000 0.0000
# 4 0.0000 0.0002 0.0002 60.1675 0.0011 0.0000
# 5 0.0000 0.0000 0.0000 0.0011 60.1665 0.0001
# 6 0.0000 0.0000 0.0000 0.0000 0.0001 28.5999
#
#
#
# Elastic Compliance Matrix: (Units=1/GPa)
#
#
# Indices 1 2 3 4 5 6 
#
# 1 0.011824 -0.005659 -0.002914 0.000000 0.000000 0.000000
# 2 -0.005659 0.011824 -0.002914 0.000000 0.000000 0.000000
# 3 -0.002914 -0.002914 0.015570 0.000000 0.000000 0.000000
# 4 0.000000 0.000000 0.000000 0.016620 0.000000 0.000000
# 5 0.000000 0.000000 0.000000 0.000000 0.016621 0.000000
# 6 0.000000 0.000000 0.000000 0.000000 0.000000 0.034965
#
#
# Mechanical properties :
#
#
# Convention : Reuss Voigt Hill
#
# Bulk Modulus (GPa) = 61.56148 68.85785 65.20966
# Shear Modulus (GPa) = 36.81563 42.36029 39.58796
#
# Velocity S-wave (km/s) = 4.79648 5.14501 4.97380
# Velocity P-wave (km/s) = 8.31535 8.85011 8.58689
#
# Compressibility (1/GPa) = 0.01624392
#
# Stress axis : x y z
#
# Youngs Moduli (GPa) = 84.57566 84.57558 64.22569
#
# Poissons Ratio (x) = 0.47861 0.18715
# Poissons Ratio (y) = 0.47861 0.18715
# Poissons Ratio (z) = 0.24645 0.24645
#
# Static dielectric constant tensor:
#      x y z
#    x 1.717030 -0.000020 0.000000 
#    y -0.000020 1.717040 0.000000 
#    z 0.000000 0.000000 1.548050 
# 
# From -- ./inp_files/6307.got.cif
#   From: 2010.05.17/outbox.cif.g08.bks.cpg/sg191_4_cif.got.tgz:6307.got - 2010.05.20 12:20:32.
