data_PCOD9587208
_publ_section_title
;
Structure prediction by ZEFSAII (Michael W. Deem and Ramdas Pophale) SiO2 
 PCOD9587208
Probable space group: P 6/M M M
;
_chemical_formula_sum "Si O2"
_cell_formula_units_Z 132
_cell_length_a 18.398793
_cell_length_b 18.398793
_cell_length_c 30.517963
_cell_angle_alpha 90.000000
_cell_angle_beta 90.000000
_cell_angle_gamma 120.000000
_cell_volume 8946.740492
_symmetry_space_group_name_H-M "P 6/M M M"
_symmetry_group_IT_number 191
_symmetry_cell_setting 'hexagonal'
loop_
_space_group_symop_operation_xyz
x,y,z
x-y,x,z
-y,x-y,z
-x,-y,z
-x+y,-x,z
y,-x+y,z
x-y,-y,-z
-x,-x+y,-z
y,x,-z
-y,-x,-z
-x+y,y,-z
x,x-y,-z
-x,-y,-z
-x+y,-x,-z
y,-x+y,-z
x,y,-z
x-y,x,-z
-y,x-y,-z
-x+y,y,z
x,x-y,z
-y,-x,z
y,x,z
x-y,-y,z
-x,-x+y,z
loop_
_atom_site_type_symbol
_atom_site_label
_atom_site_fract_x
_atom_site_fract_y
_atom_site_fract_z
Si Si1 0.331660 0.835242 0.203956
Si Si2 0.101770 0.468678 0.950331
Si Si3 0.737055 0.639106 0.128949
Si Si4 0.163678 0.494064 0.394128
Si Si5 0.588205 0.000000 0.449831
Si Si6 0.364134 0.904174 0.700715
O O1 0.424768 0.849535 0.197908
O O2 0.261853 0.738148 0.197291
O O3 0.310320 0.887968 0.169788
O O4 0.323655 0.860729 0.253531
O O5 0.130388 0.565194 0.939208
O O6 0.122900 0.420329 0.913947
O O7 0.000000 0.420063 0.951047
O O8 0.129569 0.465657 0.000000
O O9 0.835649 0.671298 0.133383
O O10 0.708791 0.708791 0.126027
O O11 0.248975 0.497950 0.408134
O O12 0.173072 0.586536 0.396175
O O13 0.142901 0.463154 0.343795
O O14 0.083906 0.432984 0.423673
O O15 0.500000 0.000000 0.450306
O O16 0.613494 0.000000 0.500000
O O17 0.453722 0.907444 0.699864
O O18 0.385356 0.000000 0.699851
#
# Coordination Sequence:
#
# PCOD9587208 Si02
#       6
#    24  24  24  24  12  24
#     4  10  19  29  43  65  94 124 151 180 215 257
#     4   8  14  26  45  67  89 113 142 175 211 256
#     4  10  20  32  46  65  88 115 149 190 234 277
#     4  10  18  29  45  65  88 116 152 191 226 263
#     4   9  18  32  46  60  84 116 147 183 228 270
#     4   9  16  27  42  60  85 119 154 183 213 251
#
# _framework density 14.753976
#
# number of rings (size 3 to 8) (size 9 to 14) (size 15 to 20)
#    0.000    2.636    0.909    2.545    0.000    2.545 
#    0.000    1.818    0.000    1.636    0.000    0.000 
#    0.000    0.000    0.000    4.818    0.000    1.364 
#
# Total GULP energy -735223.337798 kJ/mol
# GULP energy per Si atom -5569.873771 kJ/mol
# Density = 1.472040 g / cm^3
# Si number density = 14.753976 Si / 1000 Ang^3
#
#
#
# Elastic Constant Matrix: (Units=GPa)
#
#
# Indices 1 2 3 4 5 6 
#
# 1 70.8552 42.1982 34.8476 0.0000 0.0000 0.0000
# 2 42.1982 70.8552 34.8476 0.0000 0.0000 0.0000
# 3 34.8476 34.8476 92.4606 0.0000 0.0000 0.0000
# 4 0.0000 0.0000 0.0000 10.1615 0.0000 0.0000
# 5 0.0000 0.0000 0.0000 0.0000 10.1615 0.0000
# 6 0.0000 0.0000 0.0000 0.0000 0.0000 14.3285
#
#
#
# Elastic Compliance Matrix: (Units=1/GPa)
#
#
# Indices 1 2 3 4 5 6 
#
# 1 0.023209 -0.011686 -0.004343 0.000000 0.000000 0.000000
# 2 -0.011686 0.023209 -0.004343 0.000000 0.000000 0.000000
# 3 -0.004343 -0.004343 0.014089 0.000000 0.000000 0.000000
# 4 0.000000 0.000000 0.000000 0.098410 0.000000 0.000000
# 5 0.000000 0.000000 0.000000 0.000000 0.098410 0.000000
# 6 0.000000 0.000000 0.000000 0.000000 0.000000 0.069791
#
#
# Mechanical properties :
#
#
# Convention : Reuss Voigt Hill
#
# Bulk Modulus (GPa) = 50.59945 50.88419 50.74182
# Shear Modulus (GPa) = 13.35291 15.08216 14.21753
#
# Velocity S-wave (km/s) = 3.01165 3.20072 3.10762
# Velocity P-wave (km/s) = 6.81640 6.94427 6.88063
#
# Compressibility (1/GPa) = 0.01976306
#
# Stress axis : x y z
#
# Youngs Moduli (GPa) = 43.08663 43.08663 70.97780
#
# Poissons Ratio (x) = 0.50353 0.30824
# Poissons Ratio (y) = 0.50353 0.30824
# Poissons Ratio (z) = 0.18712 0.18712
#
# Static dielectric constant tensor:
#      x y z
#    x 1.477540 0.000000 0.000000 
#    y 0.000000 1.477540 0.000000 
#    z 0.000000 0.000000 1.508600 
# 
# From -- ./inp_files/10405.got.cif
#   From: 2010.05.17/outbox.cif.g08.bks.cpg/sg191_6_cif.got.tgz:10405.got - 2010.05.20 12:20:32.
