data_PCOD9587488
_publ_section_title
;
Structure prediction by ZEFSAII (Michael W. Deem and Ramdas Pophale) SiO2 
 PCOD9587488
Probable space group: P 6/M M M
;
_chemical_formula_sum "Si O2"
_cell_formula_units_Z 132
_cell_length_a 18.368761
_cell_length_b 18.368761
_cell_length_c 28.392512
_cell_angle_alpha 90.000000
_cell_angle_beta 90.000000
_cell_angle_gamma 120.000000
_cell_volume 8296.485847
_symmetry_space_group_name_H-M "P 6/M M M"
_symmetry_group_IT_number 191
_symmetry_cell_setting 'hexagonal'
loop_
_space_group_symop_operation_xyz
x,y,z
x-y,x,z
-y,x-y,z
-x,-y,z
-x+y,-x,z
y,-x+y,z
x-y,-y,-z
-x,-x+y,-z
y,x,-z
-y,-x,-z
-x+y,y,-z
x,x-y,-z
-x,-y,-z
-x+y,-x,-z
y,-x+y,-z
x,y,-z
x-y,x,-z
-y,x-y,-z
-x+y,y,z
x,x-y,z
-y,-x,z
y,x,z
x-y,-y,z
-x,-x+y,z
loop_
_atom_site_type_symbol
_atom_site_label
_atom_site_fract_x
_atom_site_fract_y
_atom_site_fract_z
Si Si1 0.635934 0.095771 0.316348
Si Si2 0.331407 0.834696 0.214481
Si Si3 0.904252 0.637950 0.500000
Si Si4 0.334067 0.836488 0.944622
Si Si5 0.640186 0.735117 0.866097
Si Si6 0.503383 0.834755 0.418330
O O1 0.546581 0.093162 0.316262
O O2 0.678214 0.141039 0.267778
O O3 0.677880 0.141006 0.364980
O O4 0.614999 0.000000 0.316366
O O5 0.424909 0.849817 0.208331
O O6 0.262730 0.737271 0.206483
O O7 0.309654 0.887093 0.177796
O O8 0.831579 0.663157 0.500000
O O9 0.887085 0.577801 0.545094
O O10 0.000000 0.712282 0.500000
O O11 0.423562 0.847123 0.930915
O O12 0.260697 0.739304 0.938734
O O13 0.306807 0.889644 0.912244
O O14 0.337087 0.856867 0.000000
O O15 0.665036 0.832518 0.865398
O O16 0.715131 0.715131 0.864724
O O17 0.424956 0.849911 0.424802
O O18 0.474540 0.737270 0.426236
#
# Coordination Sequence:
#
# PCOD9587488 Si02
#       6
#    24  24  12  24  24  24
#     4   9  17  28  42  60  84 119 163 205 236 260
#     4  10  19  30  45  66  94 127 160 191 223 263
#     4  10  21  35  51  70  91 117 148 186 231 277
#     4   9  17  29  46  69  98 131 163 191 218 252
#     4  10  21  35  50  68  90 117 149 188 234 280
#     4  10  19  30  45  66  94 127 161 194 227 265
#
# _framework density 15.910351
#
# number of rings (size 3 to 8) (size 9 to 14) (size 15 to 20)
#    0.000    2.364    0.000    3.000    0.000    4.727 
#    0.000    5.455    0.000    0.273    0.000    0.000 
#    0.000    0.000    0.000    4.545    0.000   37.818 
#
# Total GULP energy -736156.306411 kJ/mol
# GULP energy per Si atom -5576.941715 kJ/mol
# Density = 1.587414 g / cm^3
# Si number density = 15.910351 Si / 1000 Ang^3
#
#
#
# Elastic Constant Matrix: (Units=GPa)
#
#
# Indices 1 2 3 4 5 6 
#
# 1 75.6089 58.7121 32.7315 0.0000 0.0000 0.0000
# 2 58.7121 75.6089 32.7315 0.0000 0.0000 0.0000
# 3 32.7315 32.7315 74.2347 0.0000 0.0000 0.0000
# 4 0.0000 0.0000 0.0000 15.2660 0.0000 0.0000
# 5 0.0000 0.0000 0.0000 0.0000 15.2660 0.0000
# 6 0.0000 0.0000 0.0000 0.0000 0.0000 8.4484
#
#
#
# Elastic Compliance Matrix: (Units=1/GPa)
#
#
# Indices 1 2 3 4 5 6 
#
# 1 0.034333 -0.024850 -0.004181 0.000000 0.000000 0.000000
# 2 -0.024850 0.034333 -0.004181 0.000000 0.000000 0.000000
# 3 -0.004181 -0.004181 0.017158 0.000000 0.000000 0.000000
# 4 0.000000 0.000000 0.000000 0.065505 0.000000 0.000000
# 5 0.000000 0.000000 0.000000 0.000000 0.065505 0.000000
# 6 0.000000 0.000000 0.000000 0.000000 0.000000 0.118366
#
#
# Mechanical properties :
#
#
# Convention : Reuss Voigt Hill
#
# Bulk Modulus (GPa) = 51.54978 52.64474 52.09726
# Shear Modulus (GPa) = 12.25223 14.54793 13.40008
#
# Velocity S-wave (km/s) = 2.77804 3.02713 2.90526
# Velocity P-wave (km/s) = 6.53915 6.73634 6.63848
#
# Compressibility (1/GPa) = 0.01939873
#
# Stress axis : x y z
#
# Youngs Moduli (GPa) = 29.12677 29.12677 58.28269
#
# Poissons Ratio (x) = 0.72380 0.24368
# Poissons Ratio (y) = 0.72380 0.24368
# Poissons Ratio (z) = 0.12178 0.12178
#
# Static dielectric constant tensor:
#      x y z
#    x 1.519700 0.000000 0.000000 
#    y 0.000000 1.519700 0.000000 
#    z 0.000000 0.000000 1.551200 
# 
# From -- ./inp_files/9785.got.cif
#   From: 2010.05.17/outbox.cif.g08.bks.cpg/sg191_5_cif.got.tgz:9785.got - 2010.05.20 12:20:32.
