data_PCOD9587313
_publ_section_title
;
Structure prediction by ZEFSAII (Michael W. Deem and Ramdas Pophale) SiO2 
 PCOD9587313
Probable space group: P 6/M M M
;
_chemical_formula_sum "Si O2"
_cell_formula_units_Z 168
_cell_length_a 29.518766
_cell_length_b 29.518766
_cell_length_c 14.094821
_cell_angle_alpha 90.000000
_cell_angle_beta 90.000000
_cell_angle_gamma 120.000000
_cell_volume 10636.202402
_symmetry_space_group_name_H-M "P 6/M M M"
_symmetry_group_IT_number 191
_symmetry_cell_setting 'hexagonal'
loop_
_space_group_symop_operation_xyz
x,y,z
x-y,x,z
-y,x-y,z
-x,-y,z
-x+y,-x,z
y,-x+y,z
x-y,-y,-z
-x,-x+y,-z
y,x,-z
-y,-x,-z
-x+y,y,-z
x,x-y,-z
-x,-y,-z
-x+y,-x,-z
y,-x+y,-z
x,y,-z
x-y,x,-z
-y,x-y,-z
-x+y,y,z
x,x-y,z
-y,-x,z
y,x,z
x-y,-y,z
-x,-x+y,z
loop_
_atom_site_type_symbol
_atom_site_label
_atom_site_fract_x
_atom_site_fract_y
_atom_site_fract_z
Si Si1 0.333969 0.770979 0.105189
Si Si2 0.223952 0.059671 0.385697
Si Si3 0.114045 0.778987 0.710469
Si Si4 0.937783 0.288186 0.895332
Si Si5 0.446139 0.169961 0.386600
Si Si6 0.396949 0.458762 0.106302
Si Si7 0.142170 0.621872 0.734450
O O1 0.375252 0.750503 0.107016
O O2 0.276214 0.723787 0.117691
O O3 0.350324 0.812258 0.187646
O O4 0.338205 0.794115 0.000000
O O5 0.228429 0.061182 0.500000
O O6 0.210959 0.105480 0.358753
O O7 0.280585 0.076016 0.341982
O O8 0.182092 0.000000 0.358280
O O9 0.167149 0.832852 0.729677
O O10 0.090144 0.749274 0.808063
O O11 0.131169 0.744624 0.646870
O O12 0.930111 0.338564 0.890977
O O13 0.000000 0.311453 0.889092
O O14 0.919833 0.263932 0.000000
O O15 0.449835 0.168642 0.500000
O O16 0.458503 0.229252 0.360495
O O17 0.483438 0.151350 0.337376
O O18 0.436818 0.436818 0.112400
O O19 0.400733 0.491909 0.198314
O O20 0.404111 0.482879 0.000000
O O21 0.144945 0.572473 0.691929
#
# Coordination Sequence:
#
# PCOD9587313 Si02
#       7
#    24  24  24  24  24  24  24
#     4   9  17  29  46  69  96 122 146 177 223 279
#     4   9  17  29  47  73 103 134 170 212 253 290
#     4  10  18  30  50  73  98 126 161 204 247 290
#     4   9  17  30  48  69  97 131 161 189 226 280
#     4  10  21  37  54  71  94 122 153 194 246 300
#     4   9  18  33  51  70  95 127 160 194 232 276
#     4  11  21  33  51  72  94 120 156 198 236 279
#
# _framework density 15.795112
#
# number of rings (size 3 to 8) (size 9 to 14) (size 15 to 20)
#    0.000    2.429    1.429    2.714    0.000    4.000 
#    0.000    0.714    0.000    1.714    0.000    2.000 
#    0.000    0.000    0.000    0.000    0.000    0.000 
#
# Total GULP energy -935892.208280 kJ/mol
# GULP energy per Si atom -5570.786954 kJ/mol
# Density = 1.575916 g / cm^3
# Si number density = 15.795112 Si / 1000 Ang^3
#
#
#
# Elastic Constant Matrix: (Units=GPa)
#
#
# Indices 1 2 3 4 5 6 
#
# 1 78.7442 51.5530 39.6590 0.0000 0.0000 0.0000
# 2 51.5530 78.7442 39.6590 0.0000 0.0000 0.0000
# 3 39.6590 39.6590 71.1255 0.0000 0.0000 0.0000
# 4 0.0000 0.0000 0.0000 18.2010 0.0000 0.0000
# 5 0.0000 0.0000 0.0000 0.0000 18.2010 0.0000
# 6 0.0000 0.0000 0.0000 0.0000 0.0000 13.5956
#
#
#
# Elastic Compliance Matrix: (Units=1/GPa)
#
#
# Indices 1 2 3 4 5 6 
#
# 1 0.024198 -0.012579 -0.006478 0.000000 0.000000 0.000000
# 2 -0.012579 0.024198 -0.006478 0.000000 0.000000 0.000000
# 3 -0.006478 -0.006478 0.021284 0.000000 0.000000 0.000000
# 4 0.000000 0.000000 0.000000 0.054942 0.000000 0.000000
# 5 0.000000 0.000000 0.000000 0.000000 0.054942 0.000000
# 6 0.000000 0.000000 0.000000 0.000000 0.000000 0.073553
#
#
# Mechanical properties :
#
#
# Convention : Reuss Voigt Hill
#
# Bulk Modulus (GPa) = 53.74118 54.48395 54.11257
# Shear Modulus (GPa) = 16.10872 16.51570 16.31221
#
# Velocity S-wave (km/s) = 3.19698 3.23711 3.21711
# Velocity P-wave (km/s) = 6.90836 6.96713 6.93781
#
# Compressibility (1/GPa) = 0.01860770
#
# Stress axis : x y z
#
# Youngs Moduli (GPa) = 41.32651 41.32651 46.98321
#
# Poissons Ratio (x) = 0.51985 0.30437
# Poissons Ratio (y) = 0.51985 0.30437
# Poissons Ratio (z) = 0.26773 0.26773
#
# Static dielectric constant tensor:
#      x y z
#    x 1.535550 0.000000 0.000000 
#    y 0.000000 1.535550 0.000000 
#    z 0.000000 0.000000 1.511670 
# 
# From -- ./inp_files/3633.got.cif
#   From: 2010.05.17/outbox.cif.g08.bks.cpg/sg191_2_cif.got.tgz:3633.got - 2010.05.20 12:20:32.
