data_PCOD9587035
_publ_section_title
;
Structure prediction by ZEFSAII (Michael W. Deem and Ramdas Pophale) SiO2 
 PCOD9587035
Probable space group: P 6/M M M
;
_chemical_formula_sum "Si O2"
_cell_formula_units_Z 192
_cell_length_a 24.742815
_cell_length_b 24.742815
_cell_length_c 22.462971
_cell_angle_alpha 90.000000
_cell_angle_beta 90.000000
_cell_angle_gamma 120.000000
_cell_volume 11909.568976
_symmetry_space_group_name_H-M "P 6/M M M"
_symmetry_group_IT_number 191
_symmetry_cell_setting 'hexagonal'
loop_
_space_group_symop_operation_xyz
x,y,z
x-y,x,z
-y,x-y,z
-x,-y,z
-x+y,-x,z
y,-x+y,z
x-y,-y,-z
-x,-x+y,-z
y,x,-z
-y,-x,-z
-x+y,y,-z
x,x-y,-z
-x,-y,-z
-x+y,-x,-z
y,-x+y,-z
x,y,-z
x-y,x,-z
-y,x-y,-z
-x+y,y,z
x,x-y,z
-y,-x,z
y,x,z
x-y,-y,z
-x,-x+y,z
loop_
_atom_site_type_symbol
_atom_site_label
_atom_site_fract_x
_atom_site_fract_y
_atom_site_fract_z
Si Si1 0.930696 0.402774 0.239372
Si Si2 0.068617 0.258183 0.594176
Si Si3 0.282171 0.440767 0.307351
Si Si4 0.598252 0.072332 0.096013
Si Si5 0.733538 0.928052 0.140013
Si Si6 0.741207 0.606797 0.068539
Si Si7 0.399920 0.134445 0.565005
Si Si8 0.069203 0.770738 0.724180
O O1 0.928770 0.464385 0.256487
O O2 0.872376 0.343462 0.267827
O O3 0.927308 0.398611 0.167839
O O4 0.000000 0.416225 0.256614
O O5 0.124157 0.248314 0.572354
O O6 0.083819 0.327260 0.574695
O O7 0.070795 0.261186 0.666348
O O8 0.000000 0.207948 0.574823
O O9 0.232214 0.464427 0.302733
O O10 0.299638 0.438527 0.376432
O O11 0.246161 0.368816 0.285962
O O12 0.544717 0.089433 0.079205
O O13 0.669130 0.115631 0.075059
O O14 0.570803 0.000000 0.076879
O O15 0.750551 0.875276 0.121449
O O16 0.665735 0.906862 0.111239
O O17 0.725552 0.924624 0.211634
O O18 0.781504 0.000000 0.124176
O O19 0.793073 0.586146 0.081034
O O20 0.750561 0.628557 0.000000
O O21 0.421076 0.126013 0.500000
O O22 0.400615 0.200308 0.565114
O O23 0.000000 0.710482 0.723244
#
# Coordination Sequence:
#
# PCOD9587035 Si02
#       8
#    24  24  24  24  24  24  24  24
#     4   9  18  32  47  64  90 122 151 177 211 258
#     4   9  16  25  37  53  75 103 134 169 209 253
#     4  10  17  25  43  69  90 110 142 181 218 255
#     4   9  18  32  50  71  92 117 152 189 219 250
#     4  10  19  30  45  64  88 117 147 182 225 273
#     4  10  21  34  47  67  95 123 148 177 219 268
#     4   8  15  27  40  57  83 109 132 164 208 256
#     4   9  16  26  41  63  88 110 135 169 213 264
#
# _framework density 16.121490000000001
#
# number of rings (size 3 to 8) (size 9 to 14) (size 15 to 20)
#    0.000    2.750    0.000    4.125    0.000    5.500 
#    0.000    0.625    0.000    1.125    0.000    0.875 
#    0.000    3.000    0.000    6.250    0.000    0.000 
#
# Total GULP energy -1068955.277054 kJ/mol
# GULP energy per Si atom -5567.475401 kJ/mol
# Density = 1.608480 g / cm^3
# Si number density = 16.121490 Si / 1000 Ang^3
#
#
#
# Elastic Constant Matrix: (Units=GPa)
#
#
# Indices 1 2 3 4 5 6 
#
# 1 70.3222 30.4219 21.2416 0.0000 0.0000 0.0000
# 2 30.4219 70.3222 21.2416 0.0000 0.0000 0.0000
# 3 21.2416 21.2416 56.0047 0.0000 0.0000 0.0000
# 4 0.0000 0.0000 0.0000 2.2316 0.0000 0.0000
# 5 0.0000 0.0000 0.0000 0.0000 2.2316 0.0000
# 6 0.0000 0.0000 0.0000 0.0000 0.0000 19.9501
#
#
#
# Elastic Compliance Matrix: (Units=1/GPa)
#
#
# Indices 1 2 3 4 5 6 
#
# 1 0.018439 -0.006623 -0.004482 0.000000 0.000000 0.000000
# 2 -0.006623 0.018439 -0.004482 0.000000 0.000000 0.000000
# 3 -0.004482 -0.004482 0.021255 0.000000 0.000000 0.000000
# 4 0.000000 0.000000 0.000000 0.448100 0.000000 0.000000
# 5 0.000000 0.000000 0.000000 0.000000 0.448100 0.000000
# 6 0.000000 0.000000 0.000000 0.000000 0.000000 0.050125
#
#
# Mechanical properties :
#
#
# Convention : Reuss Voigt Hill
#
# Bulk Modulus (GPa) = 37.09086 38.05104 37.57095
# Shear Modulus (GPa) = 4.78644 13.13229 8.95936
#
# Velocity S-wave (km/s) = 1.72494 2.85719 2.35997
# Velocity P-wave (km/s) = 5.19849 5.87696 5.54810
#
# Compressibility (1/GPa) = 0.02696082
#
# Stress axis : x y z
#
# Youngs Moduli (GPa) = 54.23216 54.23216 47.04727
#
# Poissons Ratio (x) = 0.35919 0.21085
# Poissons Ratio (y) = 0.35919 0.21085
# Poissons Ratio (z) = 0.24305 0.24305
#
# Static dielectric constant tensor:
#      x y z
#    x 1.545860 0.000000 0.000000 
#    y 0.000000 1.545860 0.000000 
#    z 0.000000 0.000000 1.579800 
# 
# From -- ./inp_files/9398.got.cif
#   From: 2010.05.17/outbox.cif.g08.bks.cpg/sg191_5_cif.got.tgz:9398.got - 2010.05.20 12:20:32.
