data_PCOD9587248
_publ_section_title
;
Structure prediction by ZEFSAII (Michael W. Deem and Ramdas Pophale) SiO2 
 PCOD9587248
Probable space group: P 6/M M M
;
_chemical_formula_sum "Si O2"
_cell_formula_units_Z 156
_cell_length_a 22.516496
_cell_length_b 22.516496
_cell_length_c 21.316575
_cell_angle_alpha 90.000000
_cell_angle_beta 90.000000
_cell_angle_gamma 120.000000
_cell_volume 9359.435849
_symmetry_space_group_name_H-M "P 6/M M M"
_symmetry_group_IT_number 191
_symmetry_cell_setting 'hexagonal'
loop_
_space_group_symop_operation_xyz
x,y,z
x-y,x,z
-y,x-y,z
-x,-y,z
-x+y,-x,z
y,-x+y,z
x-y,-y,-z
-x,-x+y,-z
y,x,-z
-y,-x,-z
-x+y,y,-z
x,x-y,-z
-x,-y,-z
-x+y,-x,-z
y,-x+y,-z
x,y,-z
x-y,x,-z
-y,x-y,-z
-x+y,y,z
x,x-y,z
-y,-x,z
y,x,z
x-y,-y,z
-x,-x+y,z
loop_
_atom_site_type_symbol
_atom_site_label
_atom_site_fract_x
_atom_site_fract_y
_atom_site_fract_z
Si Si1 0.333539 0.530102 0.404028
Si Si2 0.297476 0.217901 0.823483
Si Si3 0.921436 0.210102 0.674714
Si Si4 0.082993 0.541497 0.071119
Si Si5 0.432669 0.081283 0.162185
Si Si6 0.919743 0.303955 0.430841
Si Si7 0.529728 0.333042 0.747067
O O1 0.262716 0.525431 0.423749
O O2 0.398242 0.601759 0.422891
O O3 0.337052 0.465166 0.427997
O O4 0.332946 0.526503 0.328169
O O5 0.281988 0.140994 0.838973
O O6 0.239223 0.239223 0.836785
O O7 0.309366 0.226210 0.747814
O O8 0.368480 0.276627 0.853773
O O9 0.869763 0.130238 0.666122
O O10 0.900632 0.251339 0.626524
O O11 0.000000 0.234241 0.661368
O O12 0.101188 0.610427 0.109179
O O13 0.000000 0.500000 0.068338
O O14 0.109268 0.554634 0.000000
O O15 0.471786 0.127311 0.221902
O O16 0.399060 0.000000 0.175270
O O17 0.910950 0.271222 0.500000
O O18 0.000000 0.358914 0.423760
O O19 0.521425 0.260713 0.767458
O O20 0.603981 0.396020 0.765313
#
# Coordination Sequence:
#
# PCOD9587248 Si02
#       7
#    24  24  24  12  24  24  24
#     4  10  21  35  50  67  89 115 147 186 228 276
#     4   9  17  29  48  74 102 129 161 204 252 296
#     4   9  17  30  48  70  96 125 156 194 239 287
#     4   9  18  32  48  68  98 134 165 195 235 281
#     4  10  18  29  47  72  96 121 158 200 239 282
#     4  10  21  35  49  66  88 116 150 187 233 288
#     4  10  19  31  47  68  91 118 150 187 232 279
#
# _framework density 16.667670999999999
#
# number of rings (size 3 to 8) (size 9 to 14) (size 15 to 20)
#    0.000    2.385    0.769    2.154    0.000    7.385 
#    0.000    2.308    0.000    3.077    0.000    2.154 
#    0.000    0.000    0.000    3.846    0.000    4.000 
#
# Total GULP energy -869484.643061 kJ/mol
# GULP energy per Si atom -5573.619507 kJ/mol
# Density = 1.662973 g / cm^3
# Si number density = 16.667671 Si / 1000 Ang^3
#
#
#
# Elastic Constant Matrix: (Units=GPa)
#
#
# Indices 1 2 3 4 5 6 
#
# 1 84.8216 55.2177 27.4005 0.0000 0.0000 0.0000
# 2 55.2177 84.8216 27.4005 0.0000 0.0000 0.0000
# 3 27.4005 27.4005 32.3095 0.0000 0.0000 0.0000
# 4 0.0000 0.0000 0.0000 6.5332 0.0000 0.0000
# 5 0.0000 0.0000 0.0000 0.0000 6.5332 0.0000
# 6 0.0000 0.0000 0.0000 0.0000 0.0000 14.8020
#
#
#
# Elastic Compliance Matrix: (Units=1/GPa)
#
#
# Indices 1 2 3 4 5 6 
#
# 1 0.022234 -0.011546 -0.009064 0.000000 0.000000 0.000000
# 2 -0.011546 0.022234 -0.009064 0.000000 0.000000 0.000000
# 3 -0.009064 -0.009064 0.046324 0.000000 0.000000 0.000000
# 4 0.000000 0.000000 0.000000 0.153064 0.000000 0.000000
# 5 0.000000 0.000000 0.000000 0.000000 0.153064 0.000000
# 6 0.000000 0.000000 0.000000 0.000000 0.000000 0.067559
#
#
# Mechanical properties :
#
#
# Convention : Reuss Voigt Hill
#
# Bulk Modulus (GPa) = 31.80250 46.88780 39.34515
# Shear Modulus (GPa) = 9.35794 11.70262 10.53028
#
# Velocity S-wave (km/s) = 2.37205 2.65262 2.51625
# Velocity P-wave (km/s) = 5.15984 6.12976 5.66559
#
# Compressibility (1/GPa) = 0.03144407
#
# Stress axis : x y z
#
# Youngs Moduli (GPa) = 44.97707 44.97707 21.58701
#
# Poissons Ratio (x) = 0.51929 0.19566
# Poissons Ratio (y) = 0.51929 0.19566
# Poissons Ratio (z) = 0.40767 0.40767
#
# Static dielectric constant tensor:
#      x y z
#    x 1.557970 0.000000 0.000000 
#    y 0.000000 1.557970 0.000000 
#    z 0.000000 0.000000 1.575600 
# 
# From -- ./inp_files/7716.got.cif
#   From: 2010.05.17/outbox.cif.g08.bks.cpg/sg191_4_cif.got.tgz:7716.got - 2010.05.20 12:20:32.
