data_PCOD9587848
_publ_section_title
;
Structure prediction by ZEFSAII (Michael W. Deem and Ramdas Pophale) SiO2 
 PCOD9587848
Probable space group: P 6/M M M
;
_chemical_formula_sum "Si O2"
_cell_formula_units_Z 156
_cell_length_a 22.132975
_cell_length_b 22.132975
_cell_length_c 21.793452
_cell_angle_alpha 90.000000
_cell_angle_beta 90.000000
_cell_angle_gamma 120.000000
_cell_volume 9245.624368
_symmetry_space_group_name_H-M "P 6/M M M"
_symmetry_group_IT_number 191
_symmetry_cell_setting 'hexagonal'
loop_
_space_group_symop_operation_xyz
x,y,z
x-y,x,z
-y,x-y,z
-x,-y,z
-x+y,-x,z
y,-x+y,z
x-y,-y,-z
-x,-x+y,-z
y,x,-z
-y,-x,-z
-x+y,y,-z
x,x-y,-z
-x,-y,-z
-x+y,-x,-z
y,-x+y,-z
x,y,-z
x-y,x,-z
-y,x-y,-z
-x+y,y,z
x,x-y,z
-y,-x,z
y,x,z
x-y,-y,z
-x,-x+y,z
loop_
_atom_site_type_symbol
_atom_site_label
_atom_site_fract_x
_atom_site_fract_y
_atom_site_fract_z
Si Si1 0.849302 0.296822 0.432098
Si Si2 0.472942 0.666184 0.925877
Si Si3 0.788729 0.081526 0.000000
Si Si4 0.296397 0.918806 0.748265
Si Si5 0.081562 0.379285 0.113841
Si Si6 0.919781 0.219936 0.372626
Si Si7 0.523657 0.188820 0.307588
O O1 0.863542 0.328439 0.500000
O O2 0.774886 0.225115 0.433536
O O3 0.903545 0.271164 0.413813
O O4 0.841043 0.339787 0.376805
O O5 0.473128 0.736564 0.908961
O O6 0.400867 0.599134 0.908105
O O7 0.538811 0.667172 0.896121
O O8 0.479356 0.665695 0.000000
O O9 0.757668 0.098837 0.940043
O O10 0.870922 0.129079 0.000000
O O11 0.760710 0.000000 0.000000
O O12 0.268194 0.907441 0.817458
O O13 0.240700 0.909784 0.696568
O O14 0.322695 0.864534 0.733818
O O15 0.357498 0.000000 0.743616
O O16 0.000000 0.353407 0.106956
O O17 0.859513 0.140488 0.384952
O O18 0.000000 0.240488 0.380500
O O19 0.596036 0.192072 0.292714
O O20 0.530446 0.265223 0.304164
#
# Coordination Sequence:
#
# PCOD9587848 Si02
#       7
#    24  24  12  24  24  24  24
#     4   8  15  29  48  69  94 125 161 200 239 278
#     4  10  20  33  48  66  91 124 159 193 232 283
#     4  10  20  34  53  78 105 129 155 191 238 290
#     4   9  19  35  53  71  93 123 161 206 251 292
#     4  10  20  34  53  76  97 120 155 202 255 299
#     4   9  17  30  49  73  99 128 162 200 242 287
#     4  10  20  33  49  71 100 133 167 203 245 296
#
# _framework density 16.872845999999999
#
# number of rings (size 3 to 8) (size 9 to 14) (size 15 to 20)
#    0.000    2.615    0.769    2.154    0.000    4.923 
#    0.000    2.308    0.000    3.000    0.000    4.308 
#    0.000    0.000    0.000   11.538    0.000    0.000 
#
# Total GULP energy -869508.078633 kJ/mol
# GULP energy per Si atom -5573.769735 kJ/mol
# Density = 1.683444 g / cm^3
# Si number density = 16.872846 Si / 1000 Ang^3
#
#
#
# Elastic Constant Matrix: (Units=GPa)
#
#
# Indices 1 2 3 4 5 6 
#
# 1 32.9207 53.9013 3.1399 0.0000 0.0000 0.0000
# 2 53.9013 32.9207 3.1399 0.0000 0.0000 0.0000
# 3 3.1399 3.1399 63.7289 0.0000 0.0000 0.0000
# 4 0.0000 0.0000 0.0000 11.0378 0.0000 0.0000
# 5 0.0000 0.0000 0.0000 0.0000 11.0378 0.0000
# 6 0.0000 0.0000 0.0000 0.0000 0.0000 -10.4903
#
#
#
# Elastic Compliance Matrix: (Units=1/GPa)
#
#
# Indices 1 2 3 4 5 6 
#
# 1 -0.018052 0.029611 -0.000570 0.000000 0.000000 0.000000
# 2 0.029611 -0.018052 -0.000570 0.000000 0.000000 0.000000
# 3 -0.000570 -0.000570 0.015748 0.000000 0.000000 0.000000
# 4 0.000000 0.000000 0.000000 0.090598 0.000000 0.000000
# 5 0.000000 0.000000 0.000000 0.000000 0.090598 0.000000
# 6 0.000000 0.000000 0.000000 0.000000 0.000000 -0.095327
#
#
# Mechanical properties :
#
#
# Convention : Reuss Voigt Hill
#
# Bulk Modulus (GPa) = 27.33167 27.77026 27.55096
# Shear Modulus (GPa) = 240.80685 6.94303 123.87494
#
# Velocity S-wave (km/s) = 11.95945 2.03073 8.57765
# Velocity P-wave (km/s) = 14.38535 4.68964 10.69886
#
# Compressibility (1/GPa) = 0.03658760
#
# Stress axis : x y z
#
# Youngs Moduli (GPa) = -55.39512 -55.39512 63.50175
#
# Poissons Ratio (x) = 1.64031 0.03616
# Poissons Ratio (y) = 1.64031 0.03616
# Poissons Ratio (z) = -0.03155 -0.03155
#
# Static dielectric constant tensor:
#      x y z
#    x 1.552040 0.000000 0.000000 
#    y 0.000000 1.552040 0.000000 
#    z 0.000000 0.000000 1.617050 
# 
# From -- ./inp_files/7714.got.cif
#   From: 2010.05.17/outbox.cif.g08.bks.cpg/sg191_4_cif.got.tgz:7714.got - 2010.05.20 12:20:32.
