data_PCOD9587766
_publ_section_title
;
Structure prediction by ZEFSAII (Michael W. Deem and Ramdas Pophale) SiO2 
 PCOD9587766
Probable space group: P 6/M M M
;
_chemical_formula_sum "Si O2"
_cell_formula_units_Z 126
_cell_length_a 30.960063
_cell_length_b 30.960063
_cell_length_c 7.821367
_cell_angle_alpha 90.000000
_cell_angle_beta 90.000000
_cell_angle_gamma 120.000000
_cell_volume 6492.574891
_symmetry_space_group_name_H-M "P 6/M M M"
_symmetry_group_IT_number 191
_symmetry_cell_setting 'hexagonal'
loop_
_space_group_symop_operation_xyz
x,y,z
x-y,x,z
-y,x-y,z
-x,-y,z
-x+y,-x,z
y,-x+y,z
x-y,-y,-z
-x,-x+y,-z
y,x,-z
-y,-x,-z
-x+y,y,-z
x,x-y,-z
-x,-y,-z
-x+y,-x,-z
y,-x+y,-z
x,y,-z
x-y,x,-z
-y,x-y,-z
-x+y,y,z
x,x-y,z
-y,-x,z
y,x,z
x-y,-y,z
-x,-x+y,z
loop_
_atom_site_type_symbol
_atom_site_label
_atom_site_fract_x
_atom_site_fract_y
_atom_site_fract_z
Si Si1 0.059694 0.940307 0.500000
Si Si2 0.863246 0.237559 0.302742
Si Si3 0.000000 0.549477 0.703540
Si Si4 0.802468 0.901234 0.809997
Si Si5 0.485519 0.194541 0.197582
Si Si6 0.788618 0.730631 0.705487
Si Si7 0.395708 0.890628 0.205961
O O1 0.077769 0.922232 0.664873
O O2 0.000000 0.913891 0.500000
O O3 0.871351 0.255590 0.500000
O O4 0.820168 0.179833 0.304864
O O5 0.840567 0.266283 0.203490
O O6 0.911370 0.237542 0.233267
O O7 0.945908 0.541426 0.754065
O O8 0.000000 0.500000 0.774842
O O9 0.000000 0.547557 0.500000
O O10 0.766634 0.924477 0.785591
O O11 0.824256 0.912128 0.000000
O O12 0.496330 0.248165 0.272933
O O13 0.503927 0.158074 0.272862
O O14 0.502035 0.204458 0.000000
O O15 0.796633 0.729432 0.500000
O O16 0.753791 0.753791 0.734114
O O17 0.445059 0.890118 0.267965
O O18 0.394083 0.886959 0.000000
#
# Coordination Sequence:
#
# PCOD9587766 Si02
#       7
#     6  24  12  12  24  24  24
#     4  12  27  48  68  88 116 148 184 232 286 346
#     4   9  17  31  50  72 100 133 169 205 249 309
#     4   9  17  29  47  73 101 127 163 217 267 305
#     4  12  24  39  63  91 114 142 182 226 276 336
#     4   9  18  32  50  72 101 136 175 219 264 313
#     4  10  19  35  57  78 105 139 172 212 261 314
#     4   9  17  31  51  72  98 137 178 215 264 326
#
# _framework density 19.406783999999998
#
# number of rings (size 3 to 8) (size 9 to 14) (size 15 to 20)
#    0.000    2.381    1.905    0.905    0.000    4.190 
#    1.714    0.000    0.000    0.952    0.000    2.667 
#    0.000    0.000    0.000    9.524    0.000    9.905 
#
# Total GULP energy -702163.549378 kJ/mol
# GULP energy per Si atom -5572.726582 kJ/mol
# Density = 1.936261 g / cm^3
# Si number density = 19.406784 Si / 1000 Ang^3
#
#
#
# Elastic Constant Matrix: (Units=GPa)
#
#
# Indices 1 2 3 4 5 6 
#
# 1 92.8769 40.8755 9.5275 0.0000 0.0000 0.0000
# 2 40.8755 92.8769 9.5275 0.0000 0.0000 0.0000
# 3 9.5275 9.5275 39.8914 0.0000 0.0000 0.0000
# 4 0.0000 0.0000 0.0000 65.0868 0.0000 0.0000
# 5 0.0000 0.0000 0.0000 0.0000 65.0868 0.0000
# 6 0.0000 0.0000 0.0000 0.0000 0.0000 26.0007
#
#
#
# Elastic Compliance Matrix: (Units=1/GPa)
#
#
# Indices 1 2 3 4 5 6 
#
# 1 0.013485 -0.005745 -0.001849 0.000000 0.000000 0.000000
# 2 -0.005745 0.013485 -0.001849 0.000000 0.000000 0.000000
# 3 -0.001849 -0.001849 0.025951 0.000000 0.000000 0.000000
# 4 0.000000 0.000000 0.000000 0.015364 0.000000 0.000000
# 5 0.000000 0.000000 0.000000 0.000000 0.015364 0.000000
# 6 0.000000 0.000000 0.000000 0.000000 0.000000 0.038461
#
#
# Mechanical properties :
#
#
# Convention : Reuss Voigt Hill
#
# Bulk Modulus (GPa) = 29.38021 38.38960 33.88490
# Shear Modulus (GPa) = 32.82131 42.28251 37.55191
#
# Velocity S-wave (km/s) = 4.11692 4.67277 4.40362
# Velocity P-wave (km/s) = 6.14579 6.99554 6.58438
#
# Compressibility (1/GPa) = 0.03403652
#
# Stress axis : x y z
#
# Youngs Moduli (GPa) = 74.15615 74.15615 38.53408
#
# Poissons Ratio (x) = 0.42604 0.07123
# Poissons Ratio (y) = 0.42604 0.07123
# Poissons Ratio (z) = 0.13708 0.13708
#
# Static dielectric constant tensor:
#      x y z
#    x 1.689880 0.000000 0.000000 
#    y 0.000000 1.689880 0.000000 
#    z 0.000000 0.000000 1.721940 
# 
# From -- ./inp_files/1869.got.cif
#   From: 2010.05.17/outbox.cif.g08.bks.cpg/sg191_1_cif.got.tgz:1869.got - 2010.05.20 12:20:32.
