data_PCOD9587909
_publ_section_title
;
Structure prediction by ZEFSAII (Michael W. Deem and Ramdas Pophale) SiO2 
 PCOD9587909
Probable space group: P 6/M M M
;
_chemical_formula_sum "Si O2"
_cell_formula_units_Z 156
_cell_length_a 21.495447
_cell_length_b 21.495447
_cell_length_c 23.209589
_cell_angle_alpha 90.000000
_cell_angle_beta 90.000000
_cell_angle_gamma 120.000000
_cell_volume 9287.333547
_symmetry_space_group_name_H-M "P 6/M M M"
_symmetry_group_IT_number 191
_symmetry_cell_setting 'hexagonal'
loop_
_space_group_symop_operation_xyz
x,y,z
x-y,x,z
-y,x-y,z
-x,-y,z
-x+y,-x,z
y,-x+y,z
x-y,-y,-z
-x,-x+y,-z
y,x,-z
-y,-x,-z
-x+y,y,-z
x,x-y,-z
-x,-y,-z
-x+y,-x,-z
y,-x+y,-z
x,y,-z
x-y,x,-z
-y,x-y,-z
-x+y,y,z
x,x-y,z
-y,-x,z
y,x,z
x-y,-y,z
-x,-x+y,z
loop_
_atom_site_type_symbol
_atom_site_label
_atom_site_fract_x
_atom_site_fract_y
_atom_site_fract_z
Si Si1 0.085707 0.542854 0.069305
Si Si2 0.782204 0.701239 0.069374
Si Si3 0.301184 0.077923 0.670525
Si Si4 0.915530 0.576169 0.250987
Si Si5 0.544459 0.845158 0.125653
Si Si6 0.335418 0.812237 0.347363
Si Si7 0.404137 0.277016 0.564339
O O1 0.128173 0.624163 0.093121
O O2 0.000000 0.500000 0.086452
O O3 0.086972 0.543486 0.000000
O O4 0.864774 0.729548 0.084310
O O5 0.751442 0.751442 0.089207
O O6 0.736308 0.622615 0.096057
O O7 0.775564 0.694738 0.000000
O O8 0.286850 0.143425 0.671010
O O9 0.355622 0.086656 0.721748
O O10 0.343614 0.082035 0.611568
O O11 0.232389 0.000000 0.674934
O O12 0.874565 0.554017 0.190596
O O13 0.870282 0.513119 0.296480
O O14 0.000000 0.600866 0.245852
O O15 0.520404 0.760202 0.124155
O O16 0.393981 0.787961 0.352228
O O17 0.256054 0.743947 0.336307
O O18 0.330526 0.850914 0.405367
O O19 0.394933 0.297900 0.500000
O O20 0.402794 0.201397 0.560193
#
# Coordination Sequence:
#
# PCOD9587909 Si02
#       7
#    12  24  24  24  24  24  24
#     4  11  24  40  58  82 112 146 183 219 263 323
#     4   9  17  30  50  75 102 130 162 202 247 295
#     4   9  17  30  49  73 101 132 167 209 260 310
#     4  10  20  35  55  76  99 128 167 217 264 307
#     4  11  22  37  57  80 103 132 174 221 268 314
#     4  10  20  33  49  71 101 137 171 208 255 311
#     4   8  15  29  47  67  93 125 165 210 252 295
#
# _framework density 16.797070999999999
#
# number of rings (size 3 to 8) (size 9 to 14) (size 15 to 20)
#    0.000    2.385    0.000    4.308    1.077    3.077 
#    0.462    0.000    0.000    1.231    0.000    5.385 
#    0.000    0.000    0.000    8.769    0.000    3.385 
#
# Total GULP energy -869326.028294 kJ/mol
# GULP energy per Si atom -5572.602745 kJ/mol
# Density = 1.675884 g / cm^3
# Si number density = 16.797071 Si / 1000 Ang^3
#
#
#
# Elastic Constant Matrix: (Units=GPa)
#
#
# Indices 1 2 3 4 5 6 
#
# 1 67.1230 29.1843 34.3008 0.0000 0.0000 0.0000
# 2 29.1843 67.1230 34.3008 0.0000 0.0000 0.0000
# 3 34.3008 34.3008 80.4177 0.0000 0.0000 0.0000
# 4 0.0000 0.0000 0.0000 5.6232 0.0000 0.0000
# 5 0.0000 0.0000 0.0000 0.0000 5.6232 0.0000
# 6 0.0000 0.0000 0.0000 0.0000 0.0000 18.9694
#
#
#
# Elastic Compliance Matrix: (Units=1/GPa)
#
#
# Indices 1 2 3 4 5 6 
#
# 1 0.020637 -0.005722 -0.006362 0.000000 0.000000 0.000000
# 2 -0.005722 0.020637 -0.006362 0.000000 0.000000 0.000000
# 3 -0.006362 -0.006362 0.017862 0.000000 0.000000 0.000000
# 4 0.000000 0.000000 0.000000 0.177833 0.000000 0.000000
# 5 0.000000 0.000000 0.000000 0.000000 0.177833 0.000000
# 6 0.000000 0.000000 0.000000 0.000000 0.000000 0.052717
#
#
# Mechanical properties :
#
#
# Convention : Reuss Voigt Hill
#
# Bulk Modulus (GPa) = 44.95368 45.58173 45.26771
# Shear Modulus (GPa) = 9.76899 13.83502 11.80201
#
# Velocity S-wave (km/s) = 2.41423 2.87306 2.65358
# Velocity P-wave (km/s) = 5.88152 6.18074 6.03299
#
# Compressibility (1/GPa) = 0.02224512
#
# Stress axis : x y z
#
# Youngs Moduli (GPa) = 48.45744 48.45744 55.98453
#
# Poissons Ratio (x) = 0.27726 0.35616
# Poissons Ratio (y) = 0.27726 0.35616
# Poissons Ratio (z) = 0.30827 0.30827
#
# Static dielectric constant tensor:
#      x y z
#    x 1.565800 0.000000 0.000000 
#    y 0.000000 1.565800 0.000000 
#    z 0.000000 0.000000 1.583250 
# 
# From -- ./inp_files/7743.got.cif
#   From: 2010.05.17/outbox.cif.g08.bks.cpg/sg191_4_cif.got.tgz:7743.got - 2010.05.20 12:20:32.
