data_PCOD9587746
_publ_section_title
;
Structure prediction by ZEFSAII (Michael W. Deem and Ramdas Pophale) SiO2 
 PCOD9587746
Probable space group: P 6/M M M
;
_chemical_formula_sum "Si O2"
_cell_formula_units_Z 108
_cell_length_a 25.270445
_cell_length_b 25.270445
_cell_length_c 12.064025
_cell_angle_alpha 90.000000
_cell_angle_beta 90.000000
_cell_angle_gamma 120.000000
_cell_volume 6671.886346
_symmetry_space_group_name_H-M "P 6/M M M"
_symmetry_group_IT_number 191
_symmetry_cell_setting 'hexagonal'
loop_
_space_group_symop_operation_xyz
x,y,z
x-y,x,z
-y,x-y,z
-x,-y,z
-x+y,-x,z
y,-x+y,z
x-y,-y,-z
-x,-x+y,-z
y,x,-z
-y,-x,-z
-x+y,y,-z
x,x-y,-z
-x,-y,-z
-x+y,-x,-z
y,-x+y,-z
x,y,-z
x-y,x,-z
-y,x-y,-z
-x+y,y,z
x,x-y,z
-y,-x,z
y,x,z
x-y,-y,z
-x,-x+y,z
loop_
_atom_site_type_symbol
_atom_site_label
_atom_site_fract_x
_atom_site_fract_y
_atom_site_fract_z
Si Si1 0.758008 0.241993 0.625514
Si Si2 0.263082 0.069858 0.000000
Si Si3 0.335803 0.167902 0.376006
Si Si4 0.736408 0.665040 0.218938
Si Si5 0.340756 0.859442 0.772275
Si Si6 0.463394 0.536607 0.631252
Si Si7 0.664751 0.457011 0.000000
O O1 0.746404 0.253596 0.500000
O O2 0.795043 0.204958 0.620577
O O3 0.697928 0.199312 0.694596
O O4 0.304715 0.077226 0.106105
O O5 0.245833 0.122917 0.000000
O O6 0.207387 0.000000 0.000000
O O7 0.312042 0.156021 0.500000
O O8 0.318293 0.106194 0.311409
O O9 0.692702 0.692702 0.243301
O O10 0.697212 0.591752 0.210295
O O11 0.401292 0.901960 0.701857
O O12 0.347279 0.833975 0.890720
O O13 0.500000 0.500000 0.631384
O O14 0.453792 0.546209 0.500000
O O15 0.614715 0.385286 0.000000
O O16 0.733827 0.467653 0.000000
#
# Coordination Sequence:
#
# PCOD9587746 Si02
#       7
#    12  12  12  24  24  12  12
#     4   9  18  33  55  79 102 132 176 228 269 322
#     4  10  19  33  55  82 111 143 178 216 264 315
#     4   9  18  31  49  75 107 143 177 211 256 311
#     4  10  20  33  53  80 110 141 178 226 271 319
#     4  11  21  37  58  82 109 142 188 227 286 343
#     4  11  24  41  59  79 112 155 194 235 285 349
#     4  12  24  41  61  84 110 143 179 233 294 351
#
# _framework density 16.187327
#
# number of rings (size 3 to 8) (size 9 to 14) (size 15 to 20)
#    0.000    1.667    3.333    2.111    0.000    2.222 
#    0.000    2.222    0.000    0.111    0.000    3.111 
#    0.000    0.000    0.000    0.000    0.000   10.111 
#
# Total GULP energy -602277.681569 kJ/mol
# GULP energy per Si atom -5576.645200 kJ/mol
# Density = 1.615048 g / cm^3
# Si number density = 16.187327 Si / 1000 Ang^3
#
#
#
# Elastic Constant Matrix: (Units=GPa)
#
#
# Indices 1 2 3 4 5 6 
#
# 1 94.4476 42.1907 51.2562 0.0000 0.0000 0.0000
# 2 42.1907 94.4476 51.2562 0.0000 0.0000 0.0000
# 3 51.2562 51.2562 156.4762 0.0000 0.0000 0.0000
# 4 0.0000 0.0000 0.0000 17.8182 0.0000 0.0000
# 5 0.0000 0.0000 0.0000 0.0000 17.8182 0.0000
# 6 0.0000 0.0000 0.0000 0.0000 0.0000 26.1285
#
#
#
# Elastic Compliance Matrix: (Units=1/GPa)
#
#
# Indices 1 2 3 4 5 6 
#
# 1 0.014420 -0.004717 -0.003178 0.000000 0.000000 0.000000
# 2 -0.004717 0.014420 -0.003178 0.000000 0.000000 0.000000
# 3 -0.003178 -0.003178 0.008473 0.000000 0.000000 0.000000
# 4 0.000000 0.000000 0.000000 0.056122 0.000000 0.000000
# 5 0.000000 0.000000 0.000000 0.000000 0.056122 0.000000
# 6 0.000000 0.000000 0.000000 0.000000 0.000000 0.038272
#
#
# Mechanical properties :
#
#
# Convention : Reuss Voigt Hill
#
# Bulk Modulus (GPa) = 65.93821 70.53082 68.23452
# Shear Modulus (GPa) = 23.25237 25.73085 24.49161
#
# Velocity S-wave (km/s) = 3.79417 3.99126 3.89396
# Velocity P-wave (km/s) = 7.74708 8.05646 7.90328
#
# Compressibility (1/GPa) = 0.01516571
#
# Stress axis : x y z
#
# Youngs Moduli (GPa) = 69.34949 69.34949 118.02145
#
# Poissons Ratio (x) = 0.32709 0.37512
# Poissons Ratio (y) = 0.32709 0.37512
# Poissons Ratio (z) = 0.22042 0.22042
#
# Static dielectric constant tensor:
#      x y z
#    x 1.528500 0.000000 0.000000 
#    y 0.000000 1.528500 0.000000 
#    z 0.000000 0.000000 1.546710 
# 
# From -- ./inp_files/3023.got.cif
#   From: 2010.05.17/outbox.cif.g08.bks.cpg/sg191_2_cif.got.tgz:3023.got - 2010.05.20 12:20:32.
