data_PCOD9587445
_publ_section_title
;
Structure prediction by ZEFSAII (Michael W. Deem and Ramdas Pophale) SiO2 
 PCOD9587445
Probable space group: P 6/M M M
;
_chemical_formula_sum "Si O2"
_cell_formula_units_Z 132
_cell_length_a 18.517067
_cell_length_b 18.517067
_cell_length_c 28.640378
_cell_angle_alpha 90.000000
_cell_angle_beta 90.000000
_cell_angle_gamma 120.000000
_cell_volume 8504.597672
_symmetry_space_group_name_H-M "P 6/M M M"
_symmetry_group_IT_number 191
_symmetry_cell_setting 'hexagonal'
loop_
_space_group_symop_operation_xyz
x,y,z
x-y,x,z
-y,x-y,z
-x,-y,z
-x+y,-x,z
y,-x+y,z
x-y,-y,-z
-x,-x+y,-z
y,x,-z
-y,-x,-z
-x+y,y,-z
x,x-y,-z
-x,-y,-z
-x+y,-x,-z
y,-x+y,-z
x,y,-z
x-y,x,-z
-y,x-y,-z
-x+y,y,z
x,x-y,z
-y,-x,z
y,x,z
x-y,-y,z
-x,-x+y,z
loop_
_atom_site_type_symbol
_atom_site_label
_atom_site_fract_x
_atom_site_fract_y
_atom_site_fract_z
Si Si1 0.258872 0.352408 0.946076
Si Si2 0.467436 0.367582 0.770667
Si Si3 0.902457 0.263917 0.684194
Si Si4 0.839367 0.334309 0.602932
Si Si5 0.665647 0.501793 0.500000
Si Si6 0.498369 0.332493 0.126531
O O1 0.163388 0.326776 0.938452
O O2 0.278658 0.278658 0.939599
O O3 0.312865 0.425642 0.910014
O O4 0.279702 0.381564 0.000000
O O5 0.562706 0.437295 0.758098
O O6 0.418147 0.418147 0.776958
O O7 0.419840 0.301950 0.729931
O O8 0.468728 0.328405 0.820208
O O9 0.834097 0.165903 0.681122
O O10 0.887203 0.309871 0.640484
O O11 0.000000 0.291054 0.685961
O O12 0.840473 0.420237 0.614189
O O13 0.743659 0.256342 0.602063
O O14 0.877178 0.344080 0.550604
O O15 0.596069 0.403932 0.500000
O O16 0.756738 0.513476 0.500000
O O17 0.523027 0.261514 0.119743
O O18 0.576614 0.423387 0.119344
#
# Coordination Sequence:
#
# PCOD9587445 Si02
#       6
#    24  24  24  24  12  24
#     4   9  18  32  49  68  89 114 145 182 225 272
#     4   9  17  29  46  68  92 117 145 177 213 255
#     4  10  20  33  48  65  86 113 145 182 224 268
#     4   9  16  26  42  65  93 124 154 181 208 243
#     4   8  13  22  37  59  88 121 154 182 207 238
#     4  10  19  30  44  64  92 125 159 191 219 246
#
# _framework density 15.521015999999999
#
# number of rings (size 3 to 8) (size 9 to 14) (size 15 to 20)
#    0.000    2.727    0.000    2.091    0.000    4.000 
#    0.000    1.364    0.000    8.909    0.000    1.273 
#    0.000    0.000    0.000    5.818    0.000   14.727 
#
# Total GULP energy -735095.963755 kJ/mol
# GULP energy per Si atom -5568.908816 kJ/mol
# Density = 1.548569 g / cm^3
# Si number density = 15.521016 Si / 1000 Ang^3
#
#
#
# Elastic Constant Matrix: (Units=GPa)
#
#
# Indices 1 2 3 4 5 6 
#
# 1 68.8315 47.5734 49.0129 0.0000 0.0000 0.0000
# 2 47.5734 68.8315 49.0129 0.0000 0.0000 0.0000
# 3 49.0129 49.0129 84.7928 0.0000 0.0000 0.0000
# 4 0.0000 0.0000 0.0000 18.4969 0.0000 0.0000
# 5 0.0000 0.0000 0.0000 0.0000 18.4969 0.0000
# 6 0.0000 0.0000 0.0000 0.0000 0.0000 10.6291
#
#
#
# Elastic Compliance Matrix: (Units=1/GPa)
#
#
# Indices 1 2 3 4 5 6 
#
# 1 0.031890 -0.015151 -0.009675 0.000000 0.000000 0.000000
# 2 -0.015151 0.031890 -0.009675 0.000000 0.000000 0.000000
# 3 -0.009675 -0.009675 0.022979 0.000000 0.000000 0.000000
# 4 0.000000 0.000000 0.000000 0.054063 0.000000 0.000000
# 5 0.000000 0.000000 0.000000 0.000000 0.054063 0.000000
# 6 0.000000 0.000000 0.000000 0.000000 0.000000 0.094082
#
#
# Mechanical properties :
#
#
# Convention : Reuss Voigt Hill
#
# Bulk Modulus (GPa) = 56.32456 57.07269 56.69862
# Shear Modulus (GPa) = 13.74052 14.64837 14.19445
#
# Velocity S-wave (km/s) = 2.97860 3.07543 3.02740
# Velocity P-wave (km/s) = 6.94244 7.03293 6.98783
#
# Compressibility (1/GPa) = 0.01775425
#
# Stress axis : x y z
#
# Youngs Moduli (GPa) = 31.35820 31.35820 43.51852
#
# Poissons Ratio (x) = 0.47511 0.42106
# Poissons Ratio (y) = 0.47511 0.42106
# Poissons Ratio (z) = 0.30340 0.30340
#
# Static dielectric constant tensor:
#      x y z
#    x 1.500370 0.000000 0.000000 
#    y 0.000000 1.500370 0.000000 
#    z 0.000000 0.000000 1.541240 
# 
# From -- ./inp_files/10419.got.cif
#   From: 2010.05.17/outbox.cif.g08.bks.cpg/sg191_6_cif.got.tgz:10419.got - 2010.05.20 12:20:32.
