data_PCOD9587724
_publ_section_title
;
Structure prediction by ZEFSAII (Michael W. Deem and Ramdas Pophale) SiO2 
 PCOD9587724
Probable space group: P 6/M M M
;
_chemical_formula_sum "Si O2"
_cell_formula_units_Z 96
_cell_length_a 17.219163
_cell_length_b 17.219163
_cell_length_c 22.521376
_cell_angle_alpha 90.000000
_cell_angle_beta 90.000000
_cell_angle_gamma 120.000000
_cell_volume 5782.952530
_symmetry_space_group_name_H-M "P 6/M M M"
_symmetry_group_IT_number 191
_symmetry_cell_setting 'hexagonal'
loop_
_space_group_symop_operation_xyz
x,y,z
x-y,x,z
-y,x-y,z
-x,-y,z
-x+y,-x,z
y,-x+y,z
x-y,-y,-z
-x,-x+y,-z
y,x,-z
-y,-x,-z
-x+y,y,-z
x,x-y,-z
-x,-y,-z
-x+y,-x,-z
y,-x+y,-z
x,y,-z
x-y,x,-z
-y,x-y,-z
-x+y,y,z
x,x-y,z
-y,-x,z
y,x,z
x-y,-y,z
-x,-x+y,z
loop_
_atom_site_type_symbol
_atom_site_label
_atom_site_fract_x
_atom_site_fract_y
_atom_site_fract_z
Si Si1 0.607270 0.715420 0.865091
Si Si2 0.102061 0.726188 0.379513
Si Si3 0.108432 0.554216 0.932424
Si Si4 0.892401 0.532765 0.261069
Si Si5 0.151583 0.667078 0.500000
O O1 0.636805 0.818403 0.881408
O O2 0.677890 0.677890 0.873918
O O3 0.515261 0.646311 0.899580
O O4 0.578637 0.701558 0.795868
O O5 0.168536 0.831465 0.383972
O O6 0.133393 0.689370 0.324036
O O7 0.110168 0.682844 0.440561
O O8 0.000000 0.697956 0.369091
O O9 0.000000 0.500000 0.933604
O O10 0.142042 0.571021 0.000000
O O11 0.854313 0.427157 0.252481
O O12 0.000000 0.579017 0.263667
O O13 0.256008 0.743992 0.500000
O O14 0.139609 0.569805 0.500000
#
# Coordination Sequence:
#
# PCOD9587724 Si02
#       5
#    24  24  12  24  12
#     4  10  19  33  53  76 104 138 175 213 254 301
#     4  10  20  32  48  69  93 124 161 201 243 288
#     4   9  18  34  54  74 100 133 167 207 253 300
#     4   9  16  29  49  71  95 125 161 201 245 293
#     4  10  20  33  48  69  96 124 153 188 234 287
#
# _framework density 16.600515999999999
#
# number of rings (size 3 to 8) (size 9 to 14) (size 15 to 20)
#    0.000    2.375    1.250    2.000    0.000    2.500 
#    0.750    0.000    0.000    2.500    0.000    0.000 
#    0.000    9.000    0.000    6.250    0.000    1.000 
#
# Total GULP energy -534500.215459 kJ/mol
# GULP energy per Si atom -5567.710578 kJ/mol
# Density = 1.656273 g / cm^3
# Si number density = 16.600516 Si / 1000 Ang^3
#
#
#
# Elastic Constant Matrix: (Units=GPa)
#
#
# Indices 1 2 3 4 5 6 
#
# 1 77.3690 60.9814 17.1023 0.0000 0.0000 0.0000
# 2 60.9814 77.3690 17.1023 0.0000 0.0000 0.0000
# 3 17.1023 17.1023 93.5520 0.0000 0.0000 0.0000
# 4 0.0000 0.0000 0.0000 5.8257 0.0000 0.0000
# 5 0.0000 0.0000 0.0000 0.0000 5.8257 0.0000
# 6 0.0000 0.0000 0.0000 0.0000 0.0000 8.1938
#
#
#
# Elastic Compliance Matrix: (Units=1/GPa)
#
#
# Indices 1 2 3 4 5 6 
#
# 1 0.034296 -0.026726 -0.001384 0.000000 0.000000 0.000000
# 2 -0.026726 0.034296 -0.001384 0.000000 0.000000 0.000000
# 3 -0.001384 -0.001384 0.011195 0.000000 0.000000 0.000000
# 4 0.000000 0.000000 0.000000 0.171653 0.000000 0.000000
# 5 0.000000 0.000000 0.000000 0.000000 0.171653 0.000000
# 6 0.000000 0.000000 0.000000 0.000000 0.000000 0.122044
#
#
# Mechanical properties :
#
#
# Convention : Reuss Voigt Hill
#
# Bulk Modulus (GPa) = 48.07705 48.74021 48.40863
# Shear Modulus (GPa) = 8.18253 14.17597 11.17925
#
# Velocity S-wave (km/s) = 2.22256 2.92541 2.59786
# Velocity P-wave (km/s) = 5.96745 6.39023 6.18246
#
# Compressibility (1/GPa) = 0.02079994
#
# Stress axis : x y z
#
# Youngs Moduli (GPa) = 29.15786 29.15786 89.32376
#
# Poissons Ratio (x) = 0.77927 0.12362
# Poissons Ratio (y) = 0.77927 0.12362
# Poissons Ratio (z) = 0.04035 0.04035
#
# Static dielectric constant tensor:
#      x y z
#    x 1.567370 0.000000 0.000000 
#    y 0.000000 1.567370 0.000000 
#    z 0.000000 0.000000 1.582880 
# 
# From -- ./inp_files/7172.got.cif
#   From: 2010.05.17/outbox.cif.g08.bks.cpg/sg191_4_cif.got.tgz:7172.got - 2010.05.20 12:20:32.
