data_PCOD9587184
_publ_section_title
;
Structure prediction by ZEFSAII (Michael W. Deem and Ramdas Pophale) SiO2 
 PCOD9587184
Probable space group: P 6/M M M
;
_chemical_formula_sum "Si O2"
_cell_formula_units_Z 192
_cell_length_a 24.625834
_cell_length_b 24.625834
_cell_length_c 22.295658
_cell_angle_alpha 90.000000
_cell_angle_beta 90.000000
_cell_angle_gamma 120.000000
_cell_volume 11709.350900
_symmetry_space_group_name_H-M "P 6/M M M"
_symmetry_group_IT_number 191
_symmetry_cell_setting 'hexagonal'
loop_
_space_group_symop_operation_xyz
x,y,z
x-y,x,z
-y,x-y,z
-x,-y,z
-x+y,-x,z
y,-x+y,z
x-y,-y,-z
-x,-x+y,-z
y,x,-z
-y,-x,-z
-x+y,y,-z
x,x-y,-z
-x,-y,-z
-x+y,-x,-z
y,-x+y,-z
x,y,-z
x-y,x,-z
-y,x-y,-z
-x+y,y,z
x,x-y,z
-y,-x,z
y,x,z
x-y,-y,z
-x,-x+y,z
loop_
_atom_site_type_symbol
_atom_site_label
_atom_site_fract_x
_atom_site_fract_y
_atom_site_fract_z
Si Si1 0.665443 0.454561 0.906694
Si Si2 0.188352 0.688443 0.774007
Si Si3 0.665373 0.205696 0.639033
Si Si4 0.928280 0.303104 0.808427
Si Si5 0.135389 0.400210 0.066538
Si Si6 0.190404 0.259843 0.743220
Si Si7 0.800989 0.728783 0.599060
Si Si8 0.141851 0.415044 0.431614
O O1 0.719019 0.438037 0.923031
O O2 0.598025 0.401976 0.927814
O O3 0.665045 0.458983 0.834049
O O4 0.689524 0.524549 0.929559
O O5 0.236418 0.763583 0.773347
O O6 0.197653 0.663759 0.711074
O O7 0.118881 0.675809 0.783061
O O8 0.600474 0.200948 0.618902
O O9 0.725231 0.274770 0.625487
O O10 0.680925 0.154541 0.610152
O O11 0.910381 0.282467 0.877434
O O12 0.919010 0.243659 0.770812
O O13 0.000000 0.356010 0.803560
O O14 0.195016 0.390032 0.074645
O O15 0.108916 0.378366 0.000000
O O16 0.123065 0.246129 0.763425
O O17 0.207389 0.207389 0.761042
O O18 0.193851 0.265469 0.671147
O O19 0.869461 0.738922 0.577701
O O20 0.776304 0.776304 0.578347
O O21 0.748069 0.656723 0.585007
O O22 0.130810 0.427134 0.500000
O O23 0.207505 0.415009 0.429196
#
# Coordination Sequence:
#
# PCOD9587184 Si02
#       8
#    24  24  24  24  24  24  24  24
#     4   9  16  26  42  63  84 105 132 170 215 262
#     4   9  17  29  45  65  89 115 142 176 224 279
#     4  10  19  31  49  71  94 120 152 193 241 292
#     4  10  18  28  46  67  85 110 146 186 223 260
#     4   9  18  31  44  59  83 114 142 170 212 265
#     4   9  16  26  43  68  94 117 143 178 219 257
#     4   9  17  30  50  75 101 128 160 199 238 276
#     4   9  18  31  46  66  93 126 161 194 230 273
#
# _framework density 16.397151000000001
#
# number of rings (size 3 to 8) (size 9 to 14) (size 15 to 20)
#    0.000    2.750    0.000    3.250    0.000    3.000 
#    0.000    1.250    0.000   12.250    0.000    6.125 
#    0.000    0.000    0.000    3.125    0.000    3.250 
#
# Total GULP energy -1069333.532316 kJ/mol
# GULP energy per Si atom -5569.445481 kJ/mol
# Density = 1.635983 g / cm^3
# Si number density = 16.397151 Si / 1000 Ang^3
#
#
#
# Elastic Constant Matrix: (Units=GPa)
#
#
# Indices 1 2 3 4 5 6 
#
# 1 65.9347 42.4336 10.6725 0.0000 0.0000 0.0000
# 2 42.4336 65.9347 10.6725 0.0000 0.0000 0.0000
# 3 10.6725 10.6725 39.0939 0.0000 0.0000 0.0000
# 4 0.0000 0.0000 0.0000 4.1716 0.0000 0.0000
# 5 0.0000 0.0000 0.0000 0.0000 4.1716 0.0000
# 6 0.0000 0.0000 0.0000 0.0000 0.0000 11.7505
#
#
#
# Elastic Compliance Matrix: (Units=1/GPa)
#
#
# Indices 1 2 3 4 5 6 
#
# 1 0.026152 -0.016400 -0.002662 0.000000 0.000000 0.000000
# 2 -0.016400 0.026152 -0.002662 0.000000 0.000000 0.000000
# 3 -0.002662 -0.002662 0.027033 0.000000 0.000000 0.000000
# 4 0.000000 0.000000 0.000000 0.239718 0.000000 0.000000
# 5 0.000000 0.000000 0.000000 0.000000 0.239718 0.000000
# 6 0.000000 0.000000 0.000000 0.000000 0.000000 0.085102
#
#
# Mechanical properties :
#
#
# Convention : Reuss Voigt Hill
#
# Bulk Modulus (GPa) = 27.86437 33.16897 30.51667
# Shear Modulus (GPa) = 7.15015 11.16437 9.15726
#
# Velocity S-wave (km/s) = 2.09047 2.61218 2.36575
# Velocity P-wave (km/s) = 4.78091 5.41945 5.11016
#
# Compressibility (1/GPa) = 0.03588813
#
# Stress axis : x y z
#
# Youngs Moduli (GPa) = 38.23842 38.23842 36.99173
#
# Poissons Ratio (x) = 0.62709 0.09848
# Poissons Ratio (y) = 0.62709 0.09848
# Poissons Ratio (z) = 0.10180 0.10180
#
# Static dielectric constant tensor:
#      x y z
#    x 1.549180 0.000000 0.000000 
#    y 0.000000 1.549180 0.000000 
#    z 0.000000 0.000000 1.577660 
# 
# From -- ./inp_files/9288.got.cif
#   From: 2010.05.17/outbox.cif.g08.bks.cpg/sg191_5_cif.got.tgz:9288.got - 2010.05.20 12:20:32.
