data_PCOD9587953
_publ_section_title
;
Structure prediction by ZEFSAII (Michael W. Deem and Ramdas Pophale) SiO2 
 PCOD9587953
Probable space group: P 6/M M M
;
_chemical_formula_sum "Si O2"
_cell_formula_units_Z 108
_cell_length_a 18.119062
_cell_length_b 18.119062
_cell_length_c 22.086120
_cell_angle_alpha 90.000000
_cell_angle_beta 90.000000
_cell_angle_gamma 120.000000
_cell_volume 6279.448187
_symmetry_space_group_name_H-M "P 6/M M M"
_symmetry_group_IT_number 191
_symmetry_cell_setting 'hexagonal'
loop_
_space_group_symop_operation_xyz
x,y,z
x-y,x,z
-y,x-y,z
-x,-y,z
-x+y,-x,z
y,-x+y,z
x-y,-y,-z
-x,-x+y,-z
y,x,-z
-y,-x,-z
-x+y,y,-z
x,x-y,-z
-x,-y,-z
-x+y,-x,-z
y,-x+y,-z
x,y,-z
x-y,x,-z
-y,x-y,-z
-x+y,y,z
x,x-y,z
-y,-x,z
y,x,z
x-y,-y,z
-x,-x+y,z
loop_
_atom_site_type_symbol
_atom_site_label
_atom_site_fract_x
_atom_site_fract_y
_atom_site_fract_z
Si Si1 0.838834 0.505105 0.780981
Si Si2 0.840217 0.332533 0.000000
Si Si3 0.364779 0.268129 0.887808
Si Si4 0.492552 0.159024 0.361040
Si Si5 0.830204 0.000000 0.426350
Si Si6 0.658471 0.658471 0.572604
O O1 0.739574 0.479147 0.787086
O O2 0.850231 0.425116 0.797142
O O3 0.890104 0.584020 0.825345
O O4 0.861818 0.526472 0.710492
O O5 0.881715 0.314927 0.058617
O O6 0.740560 0.259441 0.000000
O O7 0.850743 0.425372 0.000000
O O8 0.337884 0.168942 0.890876
O O9 0.290114 0.290114 0.893564
O O10 0.585227 0.170453 0.372235
O O11 0.492946 0.246473 0.372931
O O12 0.422209 0.083160 0.400681
O O13 0.829642 0.914821 0.405997
O O14 0.744631 0.000000 0.408962
O O15 0.832145 0.000000 0.500000
O O16 0.654584 0.654584 0.500000
#
# Coordination Sequence:
#
# PCOD9587953 Si02
#       6
#    24  12  24  24  12  12
#     4   9  18  32  52  77 105 137 173 212 253 299
#     4  10  20  33  50  77 114 154 187 216 254 307
#     4  10  21  35  52  76 106 141 180 222 269 314
#     4  10  21  37  56  77 103 137 178 220 263 313
#     4   9  17  31  53  79 105 133 164 199 243 300
#     4  11  23  37  53  77 107 136 167 211 267 321
#
# _framework density 17.198964
#
# number of rings (size 3 to 8) (size 9 to 14) (size 15 to 20)
#    0.000    2.222    0.000    2.667    1.556    6.667 
#    0.000    2.222    0.000    1.556    0.000    0.000 
#    0.000    2.667    0.000    0.000    0.000    0.000 
#
# Total GULP energy -602909.532779 kJ/mol
# GULP energy per Si atom -5582.495674 kJ/mol
# Density = 1.715982 g / cm^3
# Si number density = 17.198964 Si / 1000 Ang^3
#
#
#
# Elastic Constant Matrix: (Units=GPa)
#
#
# Indices 1 2 3 4 5 6 
#
# 1 127.8426 87.9805 59.9699 0.0000 0.0000 0.0000
# 2 87.9805 127.8426 59.9699 0.0000 0.0000 0.0000
# 3 59.9699 59.9699 57.5183 0.0000 0.0000 0.0000
# 4 0.0000 0.0000 0.0000 18.8960 0.0000 0.0000
# 5 0.0000 0.0000 0.0000 0.0000 18.8960 0.0000
# 6 0.0000 0.0000 0.0000 0.0000 0.0000 19.9310
#
#
#
# Elastic Compliance Matrix: (Units=1/GPa)
#
#
# Indices 1 2 3 4 5 6 
#
# 1 0.018052 -0.007035 -0.011486 0.000000 0.000000 0.000000
# 2 -0.007035 0.018052 -0.011486 0.000000 0.000000 0.000000
# 3 -0.011486 -0.011486 0.041338 0.000000 0.000000 0.000000
# 4 0.000000 0.000000 0.000000 0.052921 0.000000 0.000000
# 5 0.000000 0.000000 0.000000 0.000000 0.052921 0.000000
# 6 0.000000 0.000000 0.000000 0.000000 0.000000 0.050173
#
#
# Mechanical properties :
#
#
# Convention : Reuss Voigt Hill
#
# Bulk Modulus (GPa) = 57.38613 81.00489 69.19551
# Shear Modulus (GPa) = 16.70675 18.56346 17.63510
#
# Velocity S-wave (km/s) = 3.12008 3.28889 3.20560
# Velocity P-wave (km/s) = 6.81310 7.85005 7.34989
#
# Compressibility (1/GPa) = 0.01742581
#
# Stress axis : x y z
#
# Youngs Moduli (GPa) = 55.39669 55.39669 24.19105
#
# Poissons Ratio (x) = 0.38971 0.27787
# Poissons Ratio (y) = 0.38971 0.27787
# Poissons Ratio (z) = 0.63630 0.63630
#
# Static dielectric constant tensor:
#      x y z
#    x 1.564130 0.000000 0.000000 
#    y 0.000000 1.564130 0.000000 
#    z 0.000000 0.000000 1.584930 
# 
# From -- ./inp_files/7368.got.cif
#   From: 2010.05.17/outbox.cif.g08.bks.cpg/sg191_4_cif.got.tgz:7368.got - 2010.05.20 12:20:32.
