data_PCOD9587817
_publ_section_title
;
Structure prediction by ZEFSAII (Michael W. Deem and Ramdas Pophale) SiO2 
 PCOD9587817
Probable space group: P 6/M M M
;
_chemical_formula_sum "Si O2"
_cell_formula_units_Z 132
_cell_length_a 18.264998
_cell_length_b 18.264998
_cell_length_c 30.269435
_cell_angle_alpha 90.000000
_cell_angle_beta 90.000000
_cell_angle_gamma 120.000000
_cell_volume 8745.289773
_symmetry_space_group_name_H-M "P 6/M M M"
_symmetry_group_IT_number 191
_symmetry_cell_setting 'hexagonal'
loop_
_space_group_symop_operation_xyz
x,y,z
x-y,x,z
-y,x-y,z
-x,-y,z
-x+y,-x,z
y,-x+y,z
x-y,-y,-z
-x,-x+y,-z
y,x,-z
-y,-x,-z
-x+y,y,-z
x,x-y,-z
-x,-y,-z
-x+y,-x,-z
y,-x+y,-z
x,y,-z
x-y,x,-z
-y,x-y,-z
-x+y,y,z
x,x-y,z
-y,-x,z
y,x,z
x-y,-y,z
-x,-x+y,z
loop_
_atom_site_type_symbol
_atom_site_label
_atom_site_fract_x
_atom_site_fract_y
_atom_site_fract_z
Si Si1 0.493384 0.333001 0.108534
Si Si2 0.666150 0.504389 0.211595
Si Si3 0.639567 0.902119 0.551574
Si Si4 0.098079 0.362453 0.288081
Si Si5 0.589005 0.589005 0.949299
Si Si6 0.531373 0.897868 0.629969
O O1 0.491076 0.245538 0.100120
O O2 0.588174 0.411827 0.101707
O O3 0.473355 0.336257 0.160309
O O4 0.431166 0.347319 0.077294
O O5 0.740054 0.480108 0.215027
O O6 0.575716 0.424285 0.223198
O O7 0.692730 0.582192 0.244305
O O8 0.615299 0.896842 0.500000
O O9 0.672280 0.836140 0.558599
O O10 0.561536 0.876662 0.584377
O O11 0.708016 0.000000 0.560781
O O12 0.164864 0.329728 0.286358
O O13 0.124018 0.427878 0.328936
O O14 0.000000 0.292362 0.293174
O O15 0.500000 0.500000 0.949427
O O16 0.613749 0.613749 0.000000
O O17 0.431863 0.863726 0.633329
O O18 0.577293 0.000000 0.630838
#
# Coordination Sequence:
#
# PCOD9587817 Si02
#       6
#    24  24  24  24  12  24
#     4   9  17  29  45  64  87 117 152 188 224 265
#     4   9  17  28  44  66  91 118 148 182 220 263
#     4   9  17  29  46  67  90 118 154 195 236 276
#     4  10  20  32  47  68  93 121 152 186 224 266
#     4   9  18  30  42  60  86 114 147 187 226 262
#     4   9  17  29  45  66  89 112 142 180 221 267
#
# _framework density 15.09384
#
# number of rings (size 3 to 8) (size 9 to 14) (size 15 to 20)
#    0.000    2.818    0.000    1.455    1.273    3.273 
#    0.000    1.818    0.000    5.455    0.000    1.273 
#    0.000    4.364    0.000    0.455    0.000    1.182 
#
# Total GULP energy -735215.630416 kJ/mol
# GULP energy per Si atom -5569.815382 kJ/mol
# Density = 1.505949 g / cm^3
# Si number density = 15.093840 Si / 1000 Ang^3
#
#
#
# Elastic Constant Matrix: (Units=GPa)
#
#
# Indices 1 2 3 4 5 6 
#
# 1 78.1793 47.5048 46.1391 0.0000 0.0000 0.0000
# 2 47.5048 78.1793 46.1391 0.0000 0.0000 0.0000
# 3 46.1391 46.1391 74.7131 0.0000 0.0000 0.0000
# 4 0.0000 0.0000 0.0000 18.3445 0.0000 0.0000
# 5 0.0000 0.0000 0.0000 0.0000 18.3445 0.0000
# 6 0.0000 0.0000 0.0000 0.0000 0.0000 15.3373
#
#
#
# Elastic Compliance Matrix: (Units=1/GPa)
#
#
# Indices 1 2 3 4 5 6 
#
# 1 0.023578 -0.009022 -0.008989 0.000000 0.000000 0.000000
# 2 -0.009022 0.023578 -0.008989 0.000000 0.000000 0.000000
# 3 -0.008989 -0.008989 0.024487 0.000000 0.000000 0.000000
# 4 0.000000 0.000000 0.000000 0.054512 0.000000 0.000000
# 5 0.000000 0.000000 0.000000 0.000000 0.054512 0.000000
# 6 0.000000 0.000000 0.000000 0.000000 0.000000 0.065201
#
#
# Mechanical properties :
#
#
# Convention : Reuss Voigt Hill
#
# Bulk Modulus (GPa) = 56.68025 56.73754 56.70890
# Shear Modulus (GPa) = 16.35313 16.49117 16.42215
#
# Velocity S-wave (km/s) = 3.29512 3.30900 3.30207
# Velocity P-wave (km/s) = 7.21876 7.22985 7.22431
#
# Compressibility (1/GPa) = 0.01764283
#
# Stress axis : x y z
#
# Youngs Moduli (GPa) = 42.41159 42.41159 40.83737
#
# Poissons Ratio (x) = 0.38263 0.36710
# Poissons Ratio (y) = 0.38263 0.36710
# Poissons Ratio (z) = 0.38126 0.38126
#
# Static dielectric constant tensor:
#      x y z
#    x 1.490380 0.000000 0.000000 
#    y 0.000000 1.490380 0.000000 
#    z 0.000000 0.000000 1.516260 
# 
# From -- ./inp_files/10486.got.cif
#   From: 2010.05.17/outbox.cif.g08.bks.cpg/sg191_6_cif.got.tgz:10486.got - 2010.05.20 12:20:32.
