data_PCOD9588545
_publ_section_title
;
Structure prediction by ZEFSAII (Michael W. Deem and Ramdas Pophale) SiO2 
 PCOD9588545
Probable space group: P 6/M C C
;
_chemical_formula_sum "Si O2"
_cell_formula_units_Z 144
_cell_length_a 31.972297
_cell_length_b 31.972297
_cell_length_c 8.704440
_cell_angle_alpha 90.000000
_cell_angle_beta 90.000000
_cell_angle_gamma 120.000000
_cell_volume 7705.825053
_symmetry_space_group_name_H-M "P 6/M C C"
_symmetry_group_IT_number 192
_symmetry_cell_setting 'hexagonal'
loop_
_space_group_symop_operation_xyz
x,y,z
x-y,x,z
-y,x-y,z
-x,-y,z
-x+y,-x,z
y,-x+y,z
x-y,-y,1/2-z
-x,-x+y,1/2-z
y,x,1/2-z
-y,-x,1/2-z
-x+y,y,1/2-z
x,x-y,1/2-z
-x,-y,-z
-x+y,-x,-z
y,-x+y,-z
x,y,-z
x-y,x,-z
-y,x-y,-z
-x+y,y,1/2+z
x,x-y,1/2+z
-y,-x,1/2+z
y,x,1/2+z
x-y,-y,1/2+z
-x,-x+y,1/2+z
loop_
_atom_site_type_symbol
_atom_site_label
_atom_site_fract_x
_atom_site_fract_y
_atom_site_fract_z
Si Si1 0.760930 0.146499 0.816280
Si Si2 0.757411 0.705042 0.184254
Si Si3 0.144305 0.947920 0.316850
Si Si4 0.052050 0.479325 0.815770
Si Si5 0.476244 0.333208 0.684520
Si Si6 0.759194 0.333169 0.816352
O O1 0.811299 0.188702 0.750000
O O2 0.752764 0.095117 0.760185
O O3 0.717630 0.152770 0.749774
O O4 0.761627 0.148848 0.000000
O O5 0.719206 0.719206 0.250000
O O6 0.810358 0.750643 0.221077
O O7 0.752914 0.699797 0.000000
O O8 0.095545 0.904456 0.250000
O O9 0.141071 0.948878 0.500000
O O10 0.158152 0.000000 0.250000
O O11 0.060713 0.530357 0.750000
O O12 0.094764 0.471081 0.758104
O O13 0.000000 0.439701 0.750000
O O14 0.050383 0.480042 0.000000
O O15 0.472030 0.334021 0.500000
O O16 0.528471 0.339811 0.722333
O O17 0.716820 0.283181 0.750000
O O18 0.754619 0.377309 0.750000
O O19 0.754837 0.332440 0.000000
#
# Coordination Sequence:
#
# PCOD9588545 Si02
#       6
#    24  24  24  24  24  24
#     4  12  25  41  61  86 118 158 199 242 292 350
#     4  10  21  38  60  87 118 153 194 242 292 346
#     4  10  20  34  55  82 113 148 189 236 287 340
#     4  11  22  39  63  91 122 157 197 244 295 350
#     4  11  24  42  63  89 119 155 198 245 294 349
#     4  11  24  41  64  90 120 153 190 236 287 344
#
# _framework density 18.687162000000001
#
# number of rings (size 3 to 8) (size 9 to 14) (size 15 to 20)
#    0.000    1.167    0.000    7.167    0.000    9.333 
#    0.000    3.333    0.000    0.167    0.000    1.167 
#    0.000    0.000    0.000    0.000    0.000    0.000 
#
# Total GULP energy -805698.295326 kJ/mol
# GULP energy per Si atom -5595.127051 kJ/mol
# Density = 1.864463 g / cm^3
# Si number density = 18.687162 Si / 1000 Ang^3
#
#
#
# Elastic Constant Matrix: (Units=GPa)
#
#
# Indices 1 2 3 4 5 6 
#
# 1 97.3182 40.8337 44.9634 0.0000 0.0000 0.0000
# 2 40.8337 97.3182 44.9634 0.0000 0.0000 0.0000
# 3 44.9634 44.9634 103.2054 0.0000 0.0000 0.0000
# 4 0.0000 0.0000 0.0000 42.6291 0.0000 0.0000
# 5 0.0000 0.0000 0.0000 0.0000 42.6291 0.0000
# 6 0.0000 0.0000 0.0000 0.0000 0.0000 28.2423
#
#
#
# Elastic Compliance Matrix: (Units=1/GPa)
#
#
# Indices 1 2 3 4 5 6 
#
# 1 0.013904 -0.003800 -0.004402 0.000000 0.000000 0.000000
# 2 -0.003800 0.013904 -0.004402 0.000000 0.000000 0.000000
# 3 -0.004402 -0.004402 0.013525 0.000000 0.000000 0.000000
# 4 0.000000 0.000000 0.000000 0.023458 0.000000 0.000000
# 5 0.000000 0.000000 0.000000 0.000000 0.023458 0.000000
# 6 0.000000 0.000000 0.000000 0.000000 0.000000 0.035408
#
#
# Mechanical properties :
#
#
# Convention : Reuss Voigt Hill
#
# Bulk Modulus (GPa) = 62.01604 62.15142 62.08373
# Shear Modulus (GPa) = 32.41712 33.83885 33.12798
#
# Velocity S-wave (km/s) = 4.16952 4.25997 4.21499
# Velocity P-wave (km/s) = 7.51255 7.58470 7.54871
#
# Compressibility (1/GPa) = 0.01612486
#
# Stress axis : x y z
#
# Youngs Moduli (GPa) = 71.92264 71.92264 73.93756
#
# Poissons Ratio (x) = 0.27332 0.32546
# Poissons Ratio (y) = 0.27332 0.32546
# Poissons Ratio (z) = 0.31659 0.31659
#
# Static dielectric constant tensor:
#      x y z
#    x 1.620470 0.000000 0.000000 
#    y 0.000000 1.620470 0.000000 
#    z 0.000000 0.000000 1.621790 
# 
# From -- ./inp_files/1132.got.cif
#   From: 2010.05.17/outbox.cif.g08.bks.cpg/sg192_1_cif.got.tgz:1132.got - 2010.05.20 12:28:01.
