data_PCOD9588474
_publ_section_title
;
Structure prediction by ZEFSAII (Michael W. Deem and Ramdas Pophale) SiO2 
 PCOD9588474
Probable space group: P 6/M C C
;
_chemical_formula_sum "Si O2"
_cell_formula_units_Z 132
_cell_length_a 17.377557
_cell_length_b 17.377557
_cell_length_c 24.201834
_cell_angle_alpha 90.000000
_cell_angle_beta 90.000000
_cell_angle_gamma 120.000000
_cell_volume 6329.309791
_symmetry_space_group_name_H-M "P 6/M C C"
_symmetry_group_IT_number 192
_symmetry_cell_setting 'hexagonal'
loop_
_space_group_symop_operation_xyz
x,y,z
x-y,x,z
-y,x-y,z
-x,-y,z
-x+y,-x,z
y,-x+y,z
x-y,-y,1/2-z
-x,-x+y,1/2-z
y,x,1/2-z
-y,-x,1/2-z
-x+y,y,1/2-z
x,x-y,1/2-z
-x,-y,-z
-x+y,-x,-z
y,-x+y,-z
x,y,-z
x-y,x,-z
-y,x-y,-z
-x+y,y,1/2+z
x,x-y,1/2+z
-y,-x,1/2+z
y,x,1/2+z
x-y,-y,1/2+z
-x,-x+y,1/2+z
loop_
_atom_site_type_symbol
_atom_site_label
_atom_site_fract_x
_atom_site_fract_y
_atom_site_fract_z
Si Si1 0.366481 0.852478 0.675363
Si Si2 0.892290 0.278410 0.436155
Si Si3 0.622220 0.000000 0.250000
Si Si4 0.914443 0.799479 0.066719
Si Si5 0.542304 0.935403 0.060852
Si Si6 0.466617 0.168997 0.319373
O O1 0.365160 0.866784 0.609925
O O2 0.440084 0.827091 0.691383
O O3 0.265902 0.784599 0.692516
O O4 0.397238 0.947089 0.703273
O O5 0.865542 0.282460 0.500000
O O6 0.877292 0.181178 0.423943
O O7 0.848593 0.299937 0.385182
O O8 0.997351 0.352061 0.433810
O O9 0.612718 0.915355 0.286017
O O10 0.855019 0.839674 0.087853
O O11 0.918217 0.808812 0.000000
O O12 0.500000 0.000000 0.063452
O O13 0.524107 0.894265 0.000000
#
# Coordination Sequence:
#
# PCOD9588474 Si02
#       6
#    24  24  12  24  24  24
#     4  12  24  42  64  94 124 165 210 268 326 390
#     4  10  21  36  58  91 124 164 211 256 310 387
#     4  12  25  46  66  86 116 162 211 262 321 384
#     4   9  18  32  51  78 115 157 204 258 315 372
#     4  10  19  37  63  88 121 168 213 252 310 387
#     4  12  25  41  66  92 128 162 211 267 327 388
#
# _framework density 20.855353999999998
#
# number of rings (size 3 to 8) (size 9 to 14) (size 15 to 20)
#    0.000    1.273    3.636    2.727    2.545    1.455 
#    0.000    1.818    0.000    2.182    0.000    0.000 
#    0.000    0.000    0.000    2.909    0.000    0.000 
#
# Total GULP energy -736615.865526 kJ/mol
# GULP energy per Si atom -5580.423224 kJ/mol
# Density = 2.080789 g / cm^3
# Si number density = 20.855354 Si / 1000 Ang^3
#
#
#
# Elastic Constant Matrix: (Units=GPa)
#
#
# Indices 1 2 3 4 5 6 
#
# 1 78.9738 23.0788 27.2063 0.0000 0.0000 0.0000
# 2 23.0788 78.9738 27.2063 0.0000 0.0000 0.0000
# 3 27.2063 27.2063 115.8039 0.0000 0.0000 0.0000
# 4 0.0000 0.0000 0.0000 17.3272 0.0000 0.0000
# 5 0.0000 0.0000 0.0000 0.0000 17.3272 0.0000
# 6 0.0000 0.0000 0.0000 0.0000 0.0000 27.9475
#
#
#
# Elastic Compliance Matrix: (Units=1/GPa)
#
#
# Indices 1 2 3 4 5 6 
#
# 1 0.014546 -0.003344 -0.002632 0.000000 0.000000 0.000000
# 2 -0.003344 0.014546 -0.002632 0.000000 0.000000 0.000000
# 3 -0.002632 -0.002632 0.009872 0.000000 0.000000 0.000000
# 4 0.000000 0.000000 0.000000 0.057713 0.000000 0.000000
# 5 0.000000 0.000000 0.000000 0.000000 0.057713 0.000000
# 6 0.000000 0.000000 0.000000 0.000000 0.000000 0.035781
#
#
# Mechanical properties :
#
#
# Convention : Reuss Voigt Hill
#
# Bulk Modulus (GPa) = 45.97914 47.63716 46.80815
# Shear Modulus (GPa) = 23.29516 25.60438 24.44977
#
# Velocity S-wave (km/s) = 3.34576 3.50767 3.42767
# Velocity P-wave (km/s) = 6.08441 6.26868 6.17723
#
# Compressibility (1/GPa) = 0.02174899
#
# Stress axis : x y z
#
# Youngs Moduli (GPa) = 68.74561 68.74561 101.29800
#
# Poissons Ratio (x) = 0.22991 0.26659
# Poissons Ratio (y) = 0.22991 0.26659
# Poissons Ratio (z) = 0.18092 0.18092
#
# Static dielectric constant tensor:
#      x y z
#    x 1.764900 0.000000 0.000000 
#    y 0.000000 1.764900 0.000000 
#    z 0.000000 0.000000 1.791830 
# 
# From -- ./inp_files/5805.got.cif
#   From: 2010.05.17/outbox.cif.g08.bks.cpg/sg192_3_cif.got.tgz:5805.got - 2010.05.20 12:28:01.
