data_PCOD9588279
_publ_section_title
;
Structure prediction by ZEFSAII (Michael W. Deem and Ramdas Pophale) SiO2 
 PCOD9588279
Probable space group: P 6/M C C
;
_chemical_formula_sum "Si O2"
_cell_formula_units_Z 72
_cell_length_a 24.909265
_cell_length_b 24.909265
_cell_length_c 8.567321
_cell_angle_alpha 90.000000
_cell_angle_beta 90.000000
_cell_angle_gamma 120.000000
_cell_volume 4603.599105
_symmetry_space_group_name_H-M "P 6/M C C"
_symmetry_group_IT_number 192
_symmetry_cell_setting 'hexagonal'
loop_
_space_group_symop_operation_xyz
x,y,z
x-y,x,z
-y,x-y,z
-x,-y,z
-x+y,-x,z
y,-x+y,z
x-y,-y,1/2-z
-x,-x+y,1/2-z
y,x,1/2-z
-y,-x,1/2-z
-x+y,y,1/2-z
x,x-y,1/2-z
-x,-y,-z
-x+y,-x,-z
y,-x+y,-z
x,y,-z
x-y,x,-z
-y,x-y,-z
-x+y,y,1/2+z
x,x-y,1/2+z
-y,-x,1/2+z
y,x,1/2+z
x-y,-y,1/2+z
-x,-x+y,1/2+z
loop_
_atom_site_type_symbol
_atom_site_label
_atom_site_fract_x
_atom_site_fract_y
_atom_site_fract_z
Si Si1 0.815593 0.745609 0.313396
Si Si2 0.408806 0.479799 0.313420
Si Si3 0.297899 0.929285 0.686787
O O1 0.787317 0.787317 0.250000
O O2 0.883887 0.767774 0.250000
O O3 0.814018 0.745375 0.500000
O O4 0.770808 0.675538 0.250609
O O5 0.444205 0.444205 0.250000
O O6 0.450462 0.549539 0.250000
O O7 0.409637 0.479232 0.500000
O O8 0.338889 0.438363 0.250790
O O9 0.298330 0.929533 0.500000
O O10 0.333403 0.000000 0.750000
#
# Coordination Sequence:
#
# PCOD9588279 Si02
#       3
#    24  24  24
#     4  11  21  35  52  72  93 118 149 188 234 288
#     4  10  16  23  34  52  78 111 146 179 208 241
#     4  10  17  27  41  60  84 113 145 180 217 261
#
# _framework density 15.639938000000001
#
# number of rings (size 3 to 8) (size 9 to 14) (size 15 to 20)
#    0.000    1.667    0.000   14.000    0.000    0.000 
#    0.000    0.000    0.000    0.333    0.000    2.333 
#    0.000    0.000    0.000    1.000    0.000   14.667 
#
# Total GULP energy -401221.577344 kJ/mol
# GULP energy per Si atom -5572.521908 kJ/mol
# Density = 1.560434 g / cm^3
# Si number density = 15.639938 Si / 1000 Ang^3
#
#
#
# Elastic Constant Matrix: (Units=GPa)
#
#
# Indices 1 2 3 4 5 6 
#
# 1 77.2621 38.2631 41.8707 0.0000 0.0000 0.0000
# 2 38.2631 77.2621 41.8707 0.0000 0.0000 0.0000
# 3 41.8707 41.8707 199.2788 0.0000 0.0000 0.0000
# 4 0.0000 0.0000 0.0000 17.4974 0.0000 0.0000
# 5 0.0000 0.0000 0.0000 0.0000 17.4974 0.0000
# 6 0.0000 0.0000 0.0000 0.0000 0.0000 19.4995
#
#
#
# Elastic Compliance Matrix: (Units=1/GPa)
#
#
# Indices 1 2 3 4 5 6 
#
# 1 0.017927 -0.007715 -0.002146 0.000000 0.000000 0.000000
# 2 -0.007715 0.017927 -0.002146 0.000000 0.000000 0.000000
# 3 -0.002146 -0.002146 0.005920 0.000000 0.000000 0.000000
# 4 0.000000 0.000000 0.000000 0.057151 0.000000 0.000000
# 5 0.000000 0.000000 0.000000 0.000000 0.057151 0.000000
# 6 0.000000 0.000000 0.000000 0.000000 0.000000 0.051283
#
#
# Mechanical properties :
#
#
# Convention : Reuss Voigt Hill
#
# Bulk Modulus (GPa) = 56.30529 66.42355 61.36442
# Shear Modulus (GPa) = 21.07116 26.35210 23.71163
#
# Velocity S-wave (km/s) = 3.67449 4.10924 3.89793
# Velocity P-wave (km/s) = 7.35402 8.06704 7.71877
#
# Compressibility (1/GPa) = 0.01776032
#
# Stress axis : x y z
#
# Youngs Moduli (GPa) = 55.78327 55.78327 168.92775
#
# Poissons Ratio (x) = 0.43038 0.36244
# Poissons Ratio (y) = 0.43038 0.36244
# Poissons Ratio (z) = 0.11968 0.11968
#
# Static dielectric constant tensor:
#      x y z
#    x 1.401400 0.000000 0.000000 
#    y 0.000000 1.401400 0.000000 
#    z 0.000000 0.000000 1.512760 
# 
# From -- ./inp_files/636.got.cif
#   From: 2010.05.17/outbox.cif.g08.bks.cpg/sg192_1_cif.got.tgz:636.got - 2010.05.20 12:28:01.
