data_PCOD9588511
_publ_section_title
;
Structure prediction by ZEFSAII (Michael W. Deem and Ramdas Pophale) SiO2 
 PCOD9588511
Probable space group: P 6/M C C
;
_chemical_formula_sum "Si O2"
_cell_formula_units_Z 144
_cell_length_a 33.033171
_cell_length_b 33.033171
_cell_length_c 8.697712
_cell_angle_alpha 90.000000
_cell_angle_beta 90.000000
_cell_angle_gamma 120.000000
_cell_volume 8219.325619
_symmetry_space_group_name_H-M "P 6/M C C"
_symmetry_group_IT_number 192
_symmetry_cell_setting 'hexagonal'
loop_
_space_group_symop_operation_xyz
x,y,z
x-y,x,z
-y,x-y,z
-x,-y,z
-x+y,-x,z
y,-x+y,z
x-y,-y,1/2-z
-x,-x+y,1/2-z
y,x,1/2-z
-y,-x,1/2-z
-x+y,y,1/2-z
x,x-y,1/2-z
-x,-y,-z
-x+y,-x,-z
y,-x+y,-z
x,y,-z
x-y,x,-z
-y,x-y,-z
-x+y,y,1/2+z
x,x-y,1/2+z
-y,-x,1/2+z
y,x,1/2+z
x-y,-y,1/2+z
-x,-x+y,1/2+z
loop_
_atom_site_type_symbol
_atom_site_label
_atom_site_fract_x
_atom_site_fract_y
_atom_site_fract_z
Si Si1 0.229099 0.948709 0.815923
Si Si2 0.193168 0.720778 0.684302
Si Si3 0.382303 0.106139 0.816148
Si Si4 0.191457 0.051502 0.184562
Si Si5 0.437268 0.051375 0.816707
Si Si6 0.612908 0.139021 0.183591
O O1 0.245176 0.912551 0.763583
O O2 0.179480 0.937004 0.744811
O O3 0.265804 0.000000 0.750000
O O4 0.227276 0.951006 0.000000
O O5 0.243693 0.756308 0.750000
O O6 0.192755 0.723936 0.500000
O O7 0.156079 0.734006 0.754354
O O8 0.174382 0.666805 0.727150
O O9 0.401909 0.070833 0.780800
O O10 0.377741 0.107683 0.000000
O O11 0.180800 0.090400 0.250000
O O12 0.156241 0.000000 0.250000
O O13 0.190879 0.050852 0.000000
O O14 0.487039 0.088607 0.746782
O O15 0.416970 0.000000 0.750000
O O16 0.441351 0.050745 0.000000
O O17 0.576098 0.152196 0.250000
O O18 0.609886 0.136967 0.000000
#
# Coordination Sequence:
#
# PCOD9588511 Si02
#       6
#    24  24  24  24  24  24
#     4  11  21  34  52  77 109 147 188 229 269 313
#     4  10  21  37  57  81 107 137 172 214 262 317
#     4  10  20  34  52  76 107 145 185 226 267 310
#     4  11  22  39  60  84 111 142 179 221 269 322
#     4  10  20  33  51  75 106 143 183 223 263 306
#     4  10  21  37  57  80 106 135 171 213 261 314
#
# _framework density 17.519686
#
# number of rings (size 3 to 8) (size 9 to 14) (size 15 to 20)
#    0.000    1.667    0.000    6.500    0.000    6.333 
#    0.000    5.000    0.000    0.500    0.000    1.167 
#    0.000    0.000    0.000    0.000    0.000    0.000 
#
# Total GULP energy -804737.449600 kJ/mol
# GULP energy per Si atom -5588.454511 kJ/mol
# Density = 1.747981 g / cm^3
# Si number density = 17.519686 Si / 1000 Ang^3
#
#
#
# Elastic Constant Matrix: (Units=GPa)
#
#
# Indices 1 2 3 4 5 6 
#
# 1 102.6651 87.2983 55.0973 0.0000 0.0000 0.0000
# 2 87.2983 102.6651 55.0973 0.0000 0.0000 0.0000
# 3 55.0973 55.0973 113.9857 0.0000 0.0000 0.0000
# 4 0.0000 0.0000 0.0000 30.4033 0.0000 0.0000
# 5 0.0000 0.0000 0.0000 0.0000 30.4033 0.0000
# 6 0.0000 0.0000 0.0000 0.0000 0.0000 7.6834
#
#
#
# Elastic Compliance Matrix: (Units=1/GPa)
#
#
# Indices 1 2 3 4 5 6 
#
# 1 0.036196 -0.028880 -0.003536 0.000000 0.000000 0.000000
# 2 -0.028880 0.036196 -0.003536 0.000000 0.000000 0.000000
# 3 -0.003536 -0.003536 0.012191 0.000000 0.000000 0.000000
# 4 0.000000 0.000000 0.000000 0.032891 0.000000 0.000000
# 5 0.000000 0.000000 0.000000 0.000000 0.032891 0.000000
# 6 0.000000 0.000000 0.000000 0.000000 0.000000 0.130151
#
#
# Mechanical properties :
#
#
# Convention : Reuss Voigt Hill
#
# Bulk Modulus (GPa) = 78.87643 79.36688 79.12165
# Shear Modulus (GPa) = 14.01946 21.81950 17.91948
#
# Velocity S-wave (km/s) = 2.83187 3.53289 3.20162
# Velocity P-wave (km/s) = 7.47074 7.87665 7.67638
#
# Compressibility (1/GPa) = 0.01267806
#
# Stress axis : x y z
#
# Youngs Moduli (GPa) = 27.62770 27.62770 82.02466
#
# Poissons Ratio (x) = 0.79789 0.29004
# Poissons Ratio (y) = 0.79789 0.29004
# Poissons Ratio (z) = 0.09769 0.09769
#
# Static dielectric constant tensor:
#      x y z
#    x 1.581190 0.000000 0.000000 
#    y 0.000000 1.581190 0.000000 
#    z 0.000000 0.000000 1.580570 
# 
# From -- ./inp_files/1146.got.cif
#   From: 2010.05.17/outbox.cif.g08.bks.cpg/sg192_1_cif.got.tgz:1146.got - 2010.05.20 12:28:01.
