data_PCOD9588411
_publ_section_title
;
Structure prediction by ZEFSAII (Michael W. Deem and Ramdas Pophale) SiO2 
 PCOD9588411
Probable space group: P 6/M C C
;
_chemical_formula_sum "Si O2"
_cell_formula_units_Z 144
_cell_length_a 32.270145
_cell_length_b 32.270145
_cell_length_c 8.696751
_cell_angle_alpha 90.000000
_cell_angle_beta 90.000000
_cell_angle_gamma 120.000000
_cell_volume 7843.131583
_symmetry_space_group_name_H-M "P 6/M C C"
_symmetry_group_IT_number 192
_symmetry_cell_setting 'hexagonal'
loop_
_space_group_symop_operation_xyz
x,y,z
x-y,x,z
-y,x-y,z
-x,-y,z
-x+y,-x,z
y,-x+y,z
x-y,-y,1/2-z
-x,-x+y,1/2-z
y,x,1/2-z
-y,-x,1/2-z
-x+y,y,1/2-z
x,x-y,1/2-z
-x,-y,-z
-x+y,-x,-z
y,-x+y,-z
x,y,-z
x-y,x,-z
-y,x-y,-z
-x+y,y,1/2+z
x,x-y,1/2+z
-y,-x,1/2+z
y,x,1/2+z
x-y,-y,1/2+z
-x,-x+y,1/2+z
loop_
_atom_site_type_symbol
_atom_site_label
_atom_site_fract_x
_atom_site_fract_y
_atom_site_fract_z
Si Si1 0.758874 0.333216 0.184664
Si Si2 0.853378 0.238826 0.185536
Si Si3 0.571706 0.050640 0.816474
Si Si4 0.663154 0.520540 0.185515
Si Si5 0.051540 0.856943 0.815717
Si Si6 0.709009 0.948798 0.185007
O O1 0.716131 0.283870 0.250000
O O2 0.754529 0.377265 0.250000
O O3 0.810297 0.339533 0.227363
O O4 0.755626 0.332606 0.000000
O O5 0.809102 0.190899 0.250000
O O6 0.850148 0.285346 0.229476
O O7 0.903796 0.244392 0.237010
O O8 0.851970 0.235894 0.000000
O O9 0.528539 0.057077 0.750000
O O10 0.621118 0.095336 0.762321
O O11 0.562136 0.000000 0.750000
O O12 0.568435 0.048043 0.000000
O O13 0.658311 0.521233 0.000000
O O14 0.094454 0.905547 0.750000
O O15 0.058770 0.812187 0.770627
O O16 0.000000 0.843924 0.750000
O O17 0.051013 0.858918 0.000000
O O18 0.720988 0.000000 0.250000
O O19 0.708435 0.951070 0.000000
#
# Coordination Sequence:
#
# PCOD9588411 Si02
#       6
#    24  24  24  24  24  24
#     4  11  23  39  60  84 112 144 180 226 277 333
#     4  10  21  37  56  80 112 148 187 229 274 327
#     4  11  22  38  61  86 114 147 185 230 279 330
#     4  10  22  39  58  83 115 149 187 230 274 326
#     4  10  19  32  51  76 105 138 177 221 269 319
#     4   9  19  34  53  78 108 142 181 227 274 322
#
# _framework density 18.360014
#
# number of rings (size 3 to 8) (size 9 to 14) (size 15 to 20)
#    0.000    1.833    0.000    4.667    0.000    5.333 
#    0.000    1.667    0.000    0.167    0.000    1.167 
#    0.000    0.000    0.000    0.000    0.000    0.000 
#
# Total GULP energy -804676.021388 kJ/mol
# GULP energy per Si atom -5588.027926 kJ/mol
# Density = 1.831823 g / cm^3
# Si number density = 18.360014 Si / 1000 Ang^3
#
#
#
# Elastic Constant Matrix: (Units=GPa)
#
#
# Indices 1 2 3 4 5 6 
#
# 1 139.2075 76.3163 45.3098 0.0000 0.0000 0.0000
# 2 76.3163 139.2075 45.3098 0.0000 0.0000 0.0000
# 3 45.3098 45.3098 52.1901 0.0000 0.0000 0.0000
# 4 0.0000 0.0000 0.0000 23.0578 0.0000 0.0000
# 5 0.0000 0.0000 0.0000 0.0000 23.0578 0.0000
# 6 0.0000 0.0000 0.0000 0.0000 0.0000 31.4456
#
#
#
# Elastic Compliance Matrix: (Units=1/GPa)
#
#
# Indices 1 2 3 4 5 6 
#
# 1 0.011604 -0.004297 -0.006344 0.000000 0.000000 0.000000
# 2 -0.004297 0.011604 -0.006344 0.000000 0.000000 0.000000
# 3 -0.006344 -0.006344 0.030176 0.000000 0.000000 0.000000
# 4 0.000000 0.000000 0.000000 0.043369 0.000000 0.000000
# 5 0.000000 0.000000 0.000000 0.000000 0.043369 0.000000
# 6 0.000000 0.000000 0.000000 0.000000 0.000000 0.031801
#
#
# Mechanical properties :
#
#
# Convention : Reuss Voigt Hill
#
# Bulk Modulus (GPa) = 51.50731 73.83077 62.66904
# Shear Modulus (GPa) = 23.54453 26.42351 24.98402
#
# Velocity S-wave (km/s) = 3.58492 3.79778 3.69288
# Velocity P-wave (km/s) = 6.72685 7.71563 7.23814
#
# Compressibility (1/GPa) = 0.01941472
#
# Stress axis : x y z
#
# Youngs Moduli (GPa) = 86.17829 86.17829 33.13907
#
# Poissons Ratio (x) = 0.37028 0.21023
# Poissons Ratio (y) = 0.37028 0.21023
# Poissons Ratio (z) = 0.54671 0.54671
#
# Static dielectric constant tensor:
#      x y z
#    x 1.607450 0.000000 0.000000 
#    y 0.000000 1.607450 0.000000 
#    z 0.000000 0.000000 1.623440 
# 
# From -- ./inp_files/1183.got.cif
#   From: 2010.05.17/outbox.cif.g08.bks.cpg/sg192_1_cif.got.tgz:1183.got - 2010.05.20 12:28:01.
