data_PCOD9588432
_publ_section_title
;
Structure prediction by ZEFSAII (Michael W. Deem and Ramdas Pophale) SiO2 
 PCOD9588432
Probable space group: P 6/M C C
;
_chemical_formula_sum "Si O2"
_cell_formula_units_Z 144
_cell_length_a 32.262909
_cell_length_b 32.262909
_cell_length_c 8.741098
_cell_angle_alpha 90.000000
_cell_angle_beta 90.000000
_cell_angle_gamma 120.000000
_cell_volume 7879.590853
_symmetry_space_group_name_H-M "P 6/M C C"
_symmetry_group_IT_number 192
_symmetry_cell_setting 'hexagonal'
loop_
_space_group_symop_operation_xyz
x,y,z
x-y,x,z
-y,x-y,z
-x,-y,z
-x+y,-x,z
y,-x+y,z
x-y,-y,1/2-z
-x,-x+y,1/2-z
y,x,1/2-z
-y,-x,1/2-z
-x+y,y,1/2-z
x,x-y,1/2-z
-x,-y,-z
-x+y,-x,-z
y,-x+y,-z
x,y,-z
x-y,x,-z
-y,x-y,-z
-x+y,y,1/2+z
x,x-y,1/2+z
-y,-x,1/2+z
y,x,1/2+z
x-y,-y,1/2+z
-x,-x+y,1/2+z
loop_
_atom_site_type_symbol
_atom_site_label
_atom_site_fract_x
_atom_site_fract_y
_atom_site_fract_z
Si Si1 0.290739 0.239701 0.816141
Si Si2 0.428470 0.479120 0.816130
Si Si3 0.853307 0.238604 0.683512
Si Si4 0.241130 0.666728 0.816298
Si Si5 0.857176 0.805687 0.683481
Si Si6 0.145623 0.476339 0.315910
O O1 0.278780 0.278780 0.750000
O O2 0.340477 0.244468 0.765448
O O3 0.246414 0.187597 0.772535
O O4 0.291098 0.242701 0.000000
O O5 0.438345 0.438345 0.750000
O O6 0.471101 0.528900 0.750000
O O7 0.377600 0.473308 0.773298
O O8 0.432247 0.480003 0.000000
O O9 0.809764 0.190237 0.750000
O O10 0.851337 0.236023 0.500000
O O11 0.849403 0.283691 0.739225
O O12 0.284643 0.715357 0.750000
O O13 0.243540 0.621770 0.750000
O O14 0.190641 0.662832 0.775199
O O15 0.244804 0.667040 0.000000
O O16 0.844005 0.844005 0.750000
O O17 0.905667 0.811333 0.750000
O O18 0.859413 0.808514 0.500000
O O19 0.146012 0.471443 0.500000
#
# Coordination Sequence:
#
# PCOD9588432 Si02
#       6
#    24  24  24  24  24  24
#     4   9  20  36  55  81 110 143 183 227 274 322
#     4  10  20  36  58  84 113 145 184 229 278 329
#     4  11  23  38  57  81 111 148 187 226 272 325
#     4  11  23  40  61  85 112 142 178 221 271 325
#     4  10  19  33  53  78 108 141 180 225 273 323
#     4  10  23  40  58  82 112 147 186 227 271 323
#
# _framework density 18.275061000000001
#
# number of rings (size 3 to 8) (size 9 to 14) (size 15 to 20)
#    0.000    1.833    0.000    4.167    0.000    6.667 
#    0.000    3.333    0.000    0.167    0.000    1.167 
#    0.000    0.000    0.000    0.000    0.000    0.000 
#
# Total GULP energy -804673.821032 kJ/mol
# GULP energy per Si atom -5588.012646 kJ/mol
# Density = 1.823347 g / cm^3
# Si number density = 18.275061 Si / 1000 Ang^3
#
#
#
# Elastic Constant Matrix: (Units=GPa)
#
#
# Indices 1 2 3 4 5 6 
#
# 1 146.7646 84.6601 45.8595 0.0000 0.0000 0.0000
# 2 84.6601 146.7646 45.8595 0.0000 0.0000 0.0000
# 3 45.8595 45.8595 43.6678 0.0000 0.0000 0.0000
# 4 0.0000 0.0000 0.0000 29.6367 0.0000 0.0000
# 5 0.0000 0.0000 0.0000 0.0000 29.6367 0.0000
# 6 0.0000 0.0000 0.0000 0.0000 0.0000 31.0523
#
#
#
# Elastic Compliance Matrix: (Units=1/GPa)
#
#
# Indices 1 2 3 4 5 6 
#
# 1 0.011752 -0.004350 -0.007773 0.000000 0.000000 0.000000
# 2 -0.004350 0.011752 -0.007773 0.000000 0.000000 0.000000
# 3 -0.007773 -0.007773 0.039227 0.000000 0.000000 0.000000
# 4 0.000000 0.000000 0.000000 0.033742 0.000000 0.000000
# 5 0.000000 0.000000 0.000000 0.000000 0.033742 0.000000
# 6 0.000000 0.000000 0.000000 0.000000 0.000000 0.032204
#
#
# Mechanical properties :
#
#
# Convention : Reuss Voigt Hill
#
# Bulk Modulus (GPa) = 43.59678 76.66168 60.12923
# Shear Modulus (GPa) = 23.82570 28.78634 26.30602
#
# Velocity S-wave (km/s) = 3.61463 3.97315 3.79812
# Velocity P-wave (km/s) = 6.42872 7.94278 7.22552
#
# Compressibility (1/GPa) = 0.02293748
#
# Stress axis : x y z
#
# Youngs Moduli (GPa) = 85.09309 85.09309 25.49261
#
# Poissons Ratio (x) = 0.37016 0.19816
# Poissons Ratio (y) = 0.37016 0.19816
# Poissons Ratio (z) = 0.66145 0.66145
#
# Static dielectric constant tensor:
#      x y z
#    x 1.603840 0.000000 0.000000 
#    y 0.000000 1.603840 0.000000 
#    z 0.000000 0.000000 1.616710 
# 
# From -- ./inp_files/1210.got.cif
#   From: 2010.05.17/outbox.cif.g08.bks.cpg/sg192_1_cif.got.tgz:1210.got - 2010.05.20 12:28:01.
