data_PCOD9588009
_publ_section_title
;
Structure prediction by ZEFSAII (Michael W. Deem and Ramdas Pophale) SiO2 
 PCOD9588009
Probable space group: P 6/M M M
;
_chemical_formula_sum "Si O2"
_cell_formula_units_Z 84
_cell_length_a 21.245051
_cell_length_b 21.245051
_cell_length_c 12.503115
_cell_angle_alpha 90.000000
_cell_angle_beta 90.000000
_cell_angle_gamma 120.000000
_cell_volume 4887.248403
_symmetry_space_group_name_H-M "P 6/M M M"
_symmetry_group_IT_number 191
_symmetry_cell_setting 'hexagonal'
loop_
_space_group_symop_operation_xyz
x,y,z
x-y,x,z
-y,x-y,z
-x,-y,z
-x+y,-x,z
y,-x+y,z
x-y,-y,-z
-x,-x+y,-z
y,x,-z
-y,-x,-z
-x+y,y,-z
x,x-y,-z
-x,-y,-z
-x+y,-x,-z
y,-x+y,-z
x,y,-z
x-y,x,-z
-y,x-y,-z
-x+y,y,z
x,x-y,z
-y,-x,z
y,x,z
x-y,-y,z
-x,-x+y,z
loop_
_atom_site_type_symbol
_atom_site_label
_atom_site_fract_x
_atom_site_fract_y
_atom_site_fract_z
Si Si1 0.335231 0.815241 0.698407
Si Si2 0.916247 0.534579 0.500000
Si Si3 0.165182 0.330363 0.870731
Si Si4 0.916929 0.833858 0.130660
Si Si5 0.579232 0.914258 0.871842
O O1 0.396908 0.793815 0.676713
O O2 0.256569 0.743432 0.705725
O O3 0.340299 0.869421 0.603979
O O4 0.356500 0.863622 0.805643
O O5 0.919824 0.459912 0.500000
O O6 0.000000 0.598997 0.500000
O O7 0.124202 0.248403 0.830982
O O8 0.249894 0.370159 0.842117
O O9 0.164069 0.328138 0.000000
O O10 0.875760 0.875760 0.164430
O O11 0.916313 0.832626 0.000000
O O12 0.617995 0.000000 0.845262
O O13 0.567835 0.907840 0.000000
#
# Coordination Sequence:
#
# PCOD9588009 Si02
#       5
#    24  12  12  12  24
#     4  11  22  37  56  79 108 140 177 220 269 324
#     4   9  19  36  58  82 106 133 168 213 262 313
#     4   9  16  29  46  66  95 129 171 215 256 305
#     4   9  15  22  35  58  89 125 165 210 259 308
#     4  10  20  34  53  76 104 141 183 225 267 316
#
# _framework density 17.187586
#
# number of rings (size 3 to 8) (size 9 to 14) (size 15 to 20)
#    0.000    2.143    1.429    2.571    0.000    6.286 
#    0.000    2.857    0.000    1.714    0.000    0.000 
#    0.000    0.000    0.000    0.000    0.000    0.000 
#
# Total GULP energy -468180.169747 kJ/mol
# GULP energy per Si atom -5573.573449 kJ/mol
# Density = 1.714847 g / cm^3
# Si number density = 17.187586 Si / 1000 Ang^3
#
#
#
# Elastic Constant Matrix: (Units=GPa)
#
#
# Indices 1 2 3 4 5 6 
#
# 1 85.7233 60.1936 33.0049 0.0000 0.0000 0.0000
# 2 60.1936 85.7233 33.0049 0.0000 0.0000 0.0000
# 3 33.0049 33.0049 47.9638 0.0000 0.0000 0.0000
# 4 0.0000 0.0000 0.0000 18.2342 0.0000 0.0000
# 5 0.0000 0.0000 0.0000 0.0000 18.2342 0.0000
# 6 0.0000 0.0000 0.0000 0.0000 0.0000 12.7649
#
#
#
# Elastic Compliance Matrix: (Units=1/GPa)
#
#
# Indices 1 2 3 4 5 6 
#
# 1 0.024560 -0.014610 -0.006847 0.000000 0.000000 0.000000
# 2 -0.014610 0.024560 -0.006847 0.000000 0.000000 0.000000
# 3 -0.006847 -0.006847 0.030273 0.000000 0.000000 0.000000
# 4 0.000000 0.000000 0.000000 0.054842 0.000000 0.000000
# 5 0.000000 0.000000 0.000000 0.000000 0.054842 0.000000
# 6 0.000000 0.000000 0.000000 0.000000 0.000000 0.078340
#
#
# Mechanical properties :
#
#
# Convention : Reuss Voigt Hill
#
# Bulk Modulus (GPa) = 43.88879 52.42411 48.15645
# Shear Modulus (GPa) = 15.07746 16.06047 15.56896
#
# Velocity S-wave (km/s) = 2.96502 3.06015 3.01296
# Velocity P-wave (km/s) = 6.10839 6.56151 6.33900
#
# Compressibility (1/GPa) = 0.02278486
#
# Stress axis : x y z
#
# Youngs Moduli (GPa) = 40.71593 40.71593 33.03314
#
# Poissons Ratio (x) = 0.59484 0.22619
# Poissons Ratio (y) = 0.59484 0.22619
# Poissons Ratio (z) = 0.27880 0.27880
#
# Static dielectric constant tensor:
#      x y z
#    x 1.593210 0.000000 0.000000 
#    y 0.000000 1.593210 0.000000 
#    z 0.000000 0.000000 1.589450 
# 
# From -- ./inp_files/2494.got.cif
#   From: 2010.05.17/outbox.cif.g08.bks.cpg/sg191_2_cif.got.tgz:2494.got - 2010.05.20 12:20:32.
