data_PCOD9588408
_publ_section_title
;
Structure prediction by ZEFSAII (Michael W. Deem and Ramdas Pophale) SiO2 
 PCOD9588408
Probable space group: P 6/M C C
;
_chemical_formula_sum "Si O2"
_cell_formula_units_Z 168
_cell_length_a 27.873203
_cell_length_b 27.873203
_cell_length_c 15.822747
_cell_angle_alpha 90.000000
_cell_angle_beta 90.000000
_cell_angle_gamma 120.000000
_cell_volume 10645.995326
_symmetry_space_group_name_H-M "P 6/M C C"
_symmetry_group_IT_number 192
_symmetry_cell_setting 'hexagonal'
loop_
_space_group_symop_operation_xyz
x,y,z
x-y,x,z
-y,x-y,z
-x,-y,z
-x+y,-x,z
y,-x+y,z
x-y,-y,1/2-z
-x,-x+y,1/2-z
y,x,1/2-z
-y,-x,1/2-z
-x+y,y,1/2-z
x,x-y,1/2-z
-x,-y,-z
-x+y,-x,-z
y,-x+y,-z
x,y,-z
x-y,x,-z
-y,x-y,-z
-x+y,y,1/2+z
x,x-y,1/2+z
-y,-x,1/2+z
y,x,1/2+z
x-y,-y,1/2+z
-x,-x+y,1/2+z
loop_
_atom_site_type_symbol
_atom_site_label
_atom_site_fract_x
_atom_site_fract_y
_atom_site_fract_z
Si Si1 0.344165 0.934102 0.845662
Si Si2 0.779926 0.779926 0.648186
Si Si3 0.332108 0.110629 0.600466
Si Si4 0.410063 0.065898 0.845662
Si Si5 0.109812 0.000000 0.853320
Si Si6 0.478949 0.067165 0.500000
Si Si7 0.667892 0.889371 0.899534
Si Si8 0.521051 0.932835 0.000000
O O1 0.278250 0.900325 0.857147
O O2 0.359267 0.928049 0.750000
O O3 0.374137 0.917402 0.916551
O O4 0.365954 0.000000 0.858381
O O5 0.777881 0.777881 0.750000
O O6 0.782293 0.726560 0.617237
O O7 0.835098 0.835098 0.620319
O O8 0.726560 0.782293 0.617237
O O9 0.342187 0.115206 0.500000
O O10 0.331677 0.165838 0.629367
O O11 0.377925 0.099675 0.857147
O O12 0.456736 0.082598 0.916551
O O13 0.109927 0.054963 0.881341
O O14 0.109447 0.000000 0.750000
O O15 0.543845 0.087691 0.500000
O O16 0.447429 1.000000 0.500000
O O17 0.657813 0.884794 0.000000
#
# Coordination Sequence:
#
# PCOD9588408 Si02
#       8
#    24  24  24  24  24  12  24  12
#     4  10  19  32  51  73 100 134 170 211 254 300
#     4  11  21  32  47  68  92 119 159 215 270 329
#     4  11  22  34  49  69  95 132 176 220 270 324
#     4  10  19  32  51  73 100 134 170 211 254 300
#     4   9  17  29  44  61  82 108 143 197 269 343
#     4   9  18  32  51  74 102 133 163 198 232 276
#     4  11  22  34  49  69  95 132 176 220 270 324
#     4   9  18  32  51  74 102 133 163 198 232 276
#
# _framework density 15.780583
#
# number of rings (size 3 to 8) (size 9 to 14) (size 15 to 20)
#    0.000    1.857    2.857    2.286    0.000    4.571 
#    0.000    2.857    0.000    0.000    0.000    0.000 
#    0.000    6.857    0.000    3.429    0.000    7.429 
#
# Total GULP energy -937707.036152 kJ/mol
# GULP energy per Si atom -5581.589501 kJ/mol
# Density = 1.574467 g / cm^3
# Si number density = 15.780583 Si / 1000 Ang^3
#
#
#
# Elastic Constant Matrix: (Units=GPa)
#
#
# Indices 1 2 3 4 5 6 
#
# 1 86.2926 59.5657 38.5521 0.0000 0.0000 0.0000
# 2 59.5657 86.2926 38.5521 0.0000 0.0000 0.0000
# 3 38.5521 38.5521 85.6780 0.0000 0.0000 0.0000
# 4 0.0000 0.0000 0.0000 11.6516 0.0000 0.0000
# 5 0.0000 0.0000 0.0000 0.0000 11.6516 0.0000
# 6 0.0000 0.0000 0.0000 0.0000 0.0000 13.3635
#
#
#
# Elastic Compliance Matrix: (Units=1/GPa)
#
#
# Indices 1 2 3 4 5 6 
#
# 1 0.023206 -0.014210 -0.004048 0.000000 0.000000 0.000000
# 2 -0.014210 0.023206 -0.004048 0.000000 0.000000 0.000000
# 3 -0.004048 -0.004048 0.015314 0.000000 0.000000 0.000000
# 4 0.000000 0.000000 0.000000 0.085825 0.000000 0.000000
# 5 0.000000 0.000000 0.000000 0.000000 0.085825 0.000000
# 6 0.000000 0.000000 0.000000 0.000000 0.000000 0.074831
#
#
# Mechanical properties :
#
#
# Convention : Reuss Voigt Hill
#
# Bulk Modulus (GPa) = 58.42929 59.06700 58.74814
# Shear Modulus (GPa) = 13.94616 15.43957 14.69286
#
# Velocity S-wave (km/s) = 2.97603 3.13132 3.05466
# Velocity P-wave (km/s) = 6.99396 7.11231 7.05338
#
# Compressibility (1/GPa) = 0.01711470
#
# Stress axis : x y z
#
# Youngs Moduli (GPa) = 43.09307 43.09307 65.29850
#
# Poissons Ratio (x) = 0.61235 0.26431
# Poissons Ratio (y) = 0.61235 0.26431
# Poissons Ratio (z) = 0.17443 0.17443
#
# Static dielectric constant tensor:
#      x y z
#    x 1.505760 0.000000 0.000000 
#    y 0.000000 1.505760 0.000000 
#    z 0.000000 0.000000 1.564430 
# 
# From -- ./inp_files/3469.got.cif
#   From: 2010.05.17/outbox.cif.g08.bks.cpg/sg192_2_cif.got.tgz:3469.got - 2010.05.20 12:28:01.
