data_PCOD9588574
_publ_section_title
;
Structure prediction by ZEFSAII (Michael W. Deem and Ramdas Pophale) SiO2 
 PCOD9588574
Probable space group: P 6/M C C
;
_chemical_formula_sum "Si O2"
_cell_formula_units_Z 144
_cell_length_a 22.870318
_cell_length_b 22.870318
_cell_length_c 17.891674
_cell_angle_alpha 90.000000
_cell_angle_beta 90.000000
_cell_angle_gamma 120.000000
_cell_volume 8104.496045
_symmetry_space_group_name_H-M "P 6/M C C"
_symmetry_group_IT_number 192
_symmetry_cell_setting 'hexagonal'
loop_
_space_group_symop_operation_xyz
x,y,z
x-y,x,z
-y,x-y,z
-x,-y,z
-x+y,-x,z
y,-x+y,z
x-y,-y,1/2-z
-x,-x+y,1/2-z
y,x,1/2-z
-y,-x,1/2-z
-x+y,y,1/2-z
x,x-y,1/2-z
-x,-y,-z
-x+y,-x,-z
y,-x+y,-z
x,y,-z
x-y,x,-z
-y,x-y,-z
-x+y,y,1/2+z
x,x-y,1/2+z
-y,-x,1/2+z
y,x,1/2+z
x-y,-y,1/2+z
-x,-x+y,1/2+z
loop_
_atom_site_type_symbol
_atom_site_label
_atom_site_fract_x
_atom_site_fract_y
_atom_site_fract_z
Si Si1 0.076318 0.289997 0.735665
Si Si2 0.453667 0.665035 0.711444
Si Si3 0.767023 0.254758 0.917798
Si Si4 0.716537 0.081953 0.582875
Si Si5 0.693575 0.568712 0.311363
Si Si6 0.422539 0.442311 0.413208
O O1 0.137299 0.274598 0.750000
O O2 0.075915 0.317662 0.651945
O O3 0.092790 0.352652 0.791971
O O4 0.000000 0.230229 0.750000
O O5 0.405037 0.594964 0.750000
O O6 0.437231 0.718616 0.750000
O O7 0.454364 0.678909 0.624042
O O8 0.528829 0.683473 0.734369
O O9 0.840666 0.263535 0.922832
O O10 0.726987 0.189856 0.865297
O O11 0.737251 0.245101 0.000000
O O12 0.729819 0.061403 0.500000
O O13 0.635473 0.039614 0.594078
O O14 0.625049 0.551955 0.351932
O O15 0.500000 0.500000 0.401299
O O16 0.405998 0.450218 0.500000
#
# Coordination Sequence:
#
# PCOD9588574 Si02
#       6
#    24  24  24  24  24  24
#     4  12  22  40  62  90 123 153 197 244 296 367
#     4  10  21  36  54  75 104 144 199 253 302 353
#     4  10  20  36  56  79 108 148 193 243 300 351
#     4  10  20  36  57  84 117 157 195 244 298 351
#     4  11  20  35  58  81 113 149 196 236 299 357
#     4  10  22  36  52  84 124 157 193 241 300 360
#
# _framework density 17.767914999999999
#
# number of rings (size 3 to 8) (size 9 to 14) (size 15 to 20)
#    0.000    1.500    5.000    1.167    2.333    0.000 
#    0.000    5.000    0.000    0.167    0.000    0.000 
#    0.000    0.000    0.000    1.500    0.000    0.000 
#
# Total GULP energy -802614.641695 kJ/mol
# GULP energy per Si atom -5573.712790 kJ/mol
# Density = 1.772747 g / cm^3
# Si number density = 17.767915 Si / 1000 Ang^3
#
#
#
# Elastic Constant Matrix: (Units=GPa)
#
#
# Indices 1 2 3 4 5 6 
#
# 1 74.5704 28.8517 32.1259 0.0000 0.0000 0.0000
# 2 28.8517 74.5704 32.1259 0.0000 0.0000 0.0000
# 3 32.1259 32.1259 128.7175 0.0000 0.0000 0.0000
# 4 0.0000 0.0000 0.0000 37.4222 0.0000 0.0000
# 5 0.0000 0.0000 0.0000 0.0000 37.4222 0.0000
# 6 0.0000 0.0000 0.0000 0.0000 0.0000 22.8593
#
#
#
# Elastic Compliance Matrix: (Units=1/GPa)
#
#
# Indices 1 2 3 4 5 6 
#
# 1 0.016658 -0.005215 -0.002856 0.000000 0.000000 0.000000
# 2 -0.005215 0.016658 -0.002856 0.000000 0.000000 0.000000
# 3 -0.002856 -0.002856 0.009195 0.000000 0.000000 0.000000
# 4 0.000000 0.000000 0.000000 0.026722 0.000000 0.000000
# 5 0.000000 0.000000 0.000000 0.000000 0.026722 0.000000
# 6 0.000000 0.000000 0.000000 0.000000 0.000000 0.043746
#
#
# Mechanical properties :
#
#
# Convention : Reuss Voigt Hill
#
# Bulk Modulus (GPa) = 48.40935 51.56278 49.98607
# Shear Modulus (GPa) = 29.68402 31.85771 30.77087
#
# Velocity S-wave (km/s) = 4.09180 4.23897 4.16603
# Velocity P-wave (km/s) = 7.04473 7.28297 7.16484
#
# Compressibility (1/GPa) = 0.02065717
#
# Stress axis : x y z
#
# Youngs Moduli (GPa) = 60.03046 60.03046 108.75905
#
# Poissons Ratio (x) = 0.31304 0.31063
# Poissons Ratio (y) = 0.31304 0.31063
# Poissons Ratio (z) = 0.17145 0.17145
#
# Static dielectric constant tensor:
#      x y z
#    x 1.616430 0.000000 0.000000 
#    y 0.000000 1.616430 0.000000 
#    z 0.000000 0.000000 1.649680 
# 
# From -- ./inp_files/4369.got.cif
#   From: 2010.05.17/outbox.cif.g08.bks.cpg/sg192_3_cif.got.tgz:4369.got - 2010.05.20 12:28:01.
