data_PCOD9588864
_publ_section_title
;
Structure prediction by ZEFSAII (Michael W. Deem and Ramdas Pophale) SiO2 
 PCOD9588864
Probable space group: P 6/M C C
;
_chemical_formula_sum "Si O2"
_cell_formula_units_Z 156
_cell_length_a 21.000000
_cell_length_b 21.000000
_cell_length_c 21.000000
_cell_angle_alpha 90.000000
_cell_angle_beta 90.000000
_cell_angle_gamma 120.000000
_cell_volume 8020.261264
_symmetry_space_group_name_H-M "P 6/M C C"
_symmetry_group_IT_number 192
_symmetry_cell_setting 'hexagonal'
loop_
_space_group_symop_operation_xyz
x,y,z
x-y,x,z
-y,x-y,z
-x,-y,z
-x+y,-x,z
y,-x+y,z
x-y,-y,1/2-z
-x,-x+y,1/2-z
y,x,1/2-z
-y,-x,1/2-z
-x+y,y,1/2-z
x,x-y,1/2-z
-x,-y,-z
-x+y,-x,-z
y,-x+y,-z
x,y,-z
x-y,x,-z
-y,x-y,-z
-x+y,y,1/2+z
x,x-y,1/2+z
-y,-x,1/2+z
y,x,1/2+z
x-y,-y,1/2+z
-x,-x+y,1/2+z
loop_
_atom_site_type_symbol
_atom_site_label
_atom_site_fract_x
_atom_site_fract_y
_atom_site_fract_z
Si Si1 0.140541 0.483027 0.072039
Si Si2 0.127013 0.826654 0.178803
Si Si3 0.771762 0.535344 0.673596
Si Si4 0.531178 0.175610 0.073241
Si Si5 0.845292 0.850229 0.500000
Si Si6 0.628886 0.609667 0.927055
Si Si7 0.981345 0.749054 0.880314
O O1 0.167001 0.456667 0.133334
O O2 0.179059 0.570419 0.073644
O O3 0.053329 0.450360 0.076794
O O4 0.152220 0.460173 0.000000
O O5 0.150085 0.849916 0.250000
O O6 0.154154 0.768459 0.164828
O O7 0.041165 0.796012 0.172595
O O8 0.175097 0.897712 0.135572
O O9 0.760423 0.520845 0.750000
O O10 0.777944 0.475582 0.630454
O O11 0.465583 0.092709 0.087504
O O12 0.519887 0.194229 0.000000
O O13 0.924019 0.854713 0.500000
O O14 0.798866 0.802974 0.559963
O O15 0.682267 0.685503 0.891578
O O16 0.654708 0.625902 0.000000
#
# Coordination Sequence:
#
# PCOD9588864 Si02
#       7
#    24  24  24  24  12  24  24
#     4  10  21  39  62  88 120 158 199 244 298 362
#     4  11  24  40  60  86 121 163 202 246 301 363
#     4  11  23  39  61  89 123 160 201 253 305 358
#     4  10  21  39  62  88 120 158 199 244 298 362
#     4  12  25  40  60  88 123 162 202 252 316 370
#     4  10  19  33  60  94 121 148 188 247 306 359
#     4  12  21  38  63  88 119 155 198 251 301 362
#
# _framework density 19.450738000000001
#
# number of rings (size 3 to 8) (size 9 to 14) (size 15 to 20)
#    0.000    1.231    5.385    1.462    0.000    2.462 
#    3.692    0.769    0.000    1.846    0.000    2.154 
#    0.000    0.000    0.000    0.000    0.000    0.000 
#
# Total GULP energy -868841.508738 kJ/mol
# GULP energy per Si atom -5569.496851 kJ/mol
# Density = 1.940647 g / cm^3
# Si number density = 19.450738 Si / 1000 Ang^3
#
#
#
# Elastic Constant Matrix: (Units=GPa)
#
#
# Indices 1 2 3 4 5 6 
#
# 1 51.5435 0.2273 23.4549 0.0000 0.0000 0.0000
# 2 0.2273 51.5435 23.4549 0.0000 0.0000 0.0000
# 3 23.4549 23.4549 93.6926 0.0000 0.0000 0.0000
# 4 0.0000 0.0000 0.0000 34.0439 0.0000 0.0000
# 5 0.0000 0.0000 0.0000 0.0000 34.0439 0.0000
# 6 0.0000 0.0000 0.0000 0.0000 0.0000 25.6581
#
#
#
# Elastic Compliance Matrix: (Units=1/GPa)
#
#
# Indices 1 2 3 4 5 6 
#
# 1 0.022235 0.002748 -0.006254 0.000000 0.000000 0.000000
# 2 0.002748 0.022235 -0.006254 0.000000 0.000000 0.000000
# 3 -0.006254 -0.006254 0.013805 0.000000 0.000000 0.000000
# 4 0.000000 0.000000 0.000000 0.029374 0.000000 0.000000
# 5 0.000000 0.000000 0.000000 0.000000 0.029374 0.000000
# 6 0.000000 0.000000 0.000000 0.000000 0.000000 0.038974
#
#
# Mechanical properties :
#
#
# Convention : Reuss Voigt Hill
#
# Bulk Modulus (GPa) = 25.80412 32.33930 29.07171
# Shear Modulus (GPa) = 26.53438 28.72536 27.62987
#
# Velocity S-wave (km/s) = 3.69749 3.84712 3.77305
# Velocity P-wave (km/s) = 5.61461 6.03292 5.82752
#
# Compressibility (1/GPa) = 0.03875350
#
# Stress axis : x y z
#
# Youngs Moduli (GPa) = 44.97428 44.97428 72.44001
#
# Poissons Ratio (x) = -0.12358 0.45305
# Poissons Ratio (y) = -0.12358 0.45305
# Poissons Ratio (z) = 0.28128 0.28128
#
# Static dielectric constant tensor:
#      x y z
#    x 1.714760 0.000000 0.000000 
#    y 0.000000 1.714760 0.000000 
#    z 0.000000 0.000000 1.647650 
# 
# From -- ./inp_files/5258.got.cif
#   From: 2010.05.17/outbox.ucp.g08.bks.cvg/sg192_3_cif.got.tgz:5258.got - 2010.06.11 15:23:19.
