data_PCOD9588180
_publ_section_title
;
Structure prediction by ZEFSAII (Michael W. Deem and Ramdas Pophale) SiO2 
 PCOD9588180
Probable space group: P 6/M M M
;
_chemical_formula_sum "Si O2"
_cell_formula_units_Z 60
_cell_length_a 21.644654
_cell_length_b 21.644654
_cell_length_c 7.256961
_cell_angle_alpha 90.000000
_cell_angle_beta 90.000000
_cell_angle_gamma 120.000000
_cell_volume 2944.331575
_symmetry_space_group_name_H-M "P 6/M M M"
_symmetry_group_IT_number 191
_symmetry_cell_setting 'hexagonal'
loop_
_space_group_symop_operation_xyz
x,y,z
x-y,x,z
-y,x-y,z
-x,-y,z
-x+y,-x,z
y,-x+y,z
x-y,-y,-z
-x,-x+y,-z
y,x,-z
-y,-x,-z
-x+y,y,-z
x,x-y,-z
-x,-y,-z
-x+y,-x,-z
y,-x+y,-z
x,y,-z
x-y,x,-z
-y,x-y,-z
-x+y,y,z
x,x-y,z
-y,-x,z
y,x,z
x-y,-y,z
-x,-x+y,z
loop_
_atom_site_type_symbol
_atom_site_label
_atom_site_fract_x
_atom_site_fract_y
_atom_site_fract_z
Si Si1 0.084114 0.671597 0.778664
Si Si2 0.812208 0.476296 0.500000
Si Si3 0.837737 0.162264 0.222910
Si Si4 0.162649 0.081325 0.224943
O O1 0.135569 0.650152 0.673563
O O2 0.118012 0.754880 0.724769
O O3 0.000000 0.625382 0.730426
O O4 0.089077 0.667540 0.000000
O O5 0.744301 0.488601 0.500000
O O6 0.786286 0.393143 0.500000
O O7 0.878143 0.121858 0.286474
O O8 0.837899 0.162102 0.000000
O O9 0.121806 0.121806 0.283636
O O10 0.163230 0.081615 0.000000
#
# Coordination Sequence:
#
# PCOD9588180 Si02
#       4
#    24  12  12  12
#     4  10  21  39  65  95 127 165 209 259 314 369
#     4  12  26  45  67  92 125 165 206 252 309 381
#     4   9  16  30  53  82 118 160 204 251 303 358
#     4   9  15  22  36  65 109 159 208 256 304 354
#
# _framework density 20.378139000000001
#
# number of rings (size 3 to 8) (size 9 to 14) (size 15 to 20)
#    0.000    2.000    2.000    2.200    0.000    8.000 
#    0.000    2.000    0.000    2.400    0.000    0.000 
#    0.000    0.000    0.000    8.600    0.000   25.800 
#
# Total GULP energy -335147.970614 kJ/mol
# GULP energy per Si atom -5585.799510 kJ/mol
# Density = 2.033176 g / cm^3
# Si number density = 20.378139 Si / 1000 Ang^3
#
#
#
# Elastic Constant Matrix: (Units=GPa)
#
#
# Indices 1 2 3 4 5 6 
#
# 1 116.3087 42.7600 29.5473 0.0000 0.0000 0.0000
# 2 42.7600 116.3087 29.5473 0.0000 0.0000 0.0000
# 3 29.5473 29.5473 100.7432 0.0000 0.0000 0.0000
# 4 0.0000 0.0000 0.0000 2.0472 0.0000 0.0000
# 5 0.0000 0.0000 0.0000 0.0000 2.0472 0.0000
# 6 0.0000 0.0000 0.0000 0.0000 0.0000 36.7743
#
#
#
# Elastic Compliance Matrix: (Units=1/GPa)
#
#
# Indices 1 2 3 4 5 6 
#
# 1 0.010326 -0.003271 -0.002069 0.000000 0.000000 0.000000
# 2 -0.003271 0.010326 -0.002069 0.000000 0.000000 0.000000
# 3 -0.002069 -0.002069 0.011140 0.000000 0.000000 0.000000
# 4 0.000000 0.000000 0.000000 0.488483 0.000000 0.000000
# 5 0.000000 0.000000 0.000000 0.000000 0.488483 0.000000
# 6 0.000000 0.000000 0.000000 0.000000 0.000000 0.027193
#
#
# Mechanical properties :
#
#
# Convention : Reuss Voigt Hill
#
# Bulk Modulus (GPa) = 58.91509 59.67444 59.29477
# Shear Modulus (GPa) = 4.73294 23.60747 14.17020
#
# Velocity S-wave (km/s) = 1.52565 3.40732 2.63983
# Velocity P-wave (km/s) = 5.66367 6.69529 6.20097
#
# Compressibility (1/GPa) = 0.01697358
#
# Stress axis : x y z
#
# Youngs Moduli (GPa) = 96.84400 96.84400 89.76629
#
# Poissons Ratio (x) = 0.31673 0.18575
# Poissons Ratio (y) = 0.31673 0.18575
# Poissons Ratio (z) = 0.20040 0.20040
#
# Static dielectric constant tensor:
#      x y z
#    x 1.684090 0.000000 0.000000 
#    y 0.000000 1.684090 0.000000 
#    z 0.000000 0.000000 1.776620 
# 
# From -- ./inp_files/604.got.cif
#   From: 2010.05.17/outbox.cif.g08.bks.cpg/sg191_1_cif.got.tgz:604.got - 2010.05.20 12:20:32.
