data_PCOD9588114
_publ_section_title
;
Structure prediction by ZEFSAII (Michael W. Deem and Ramdas Pophale) SiO2 
 PCOD9588114
Probable space group: P 6/M M M
;
_chemical_formula_sum "Si O2"
_cell_formula_units_Z 144
_cell_length_a 21.210061
_cell_length_b 21.210061
_cell_length_c 24.480258
_cell_angle_alpha 90.000000
_cell_angle_beta 90.000000
_cell_angle_gamma 120.000000
_cell_volume 9537.410101
_symmetry_space_group_name_H-M "P 6/M M M"
_symmetry_group_IT_number 191
_symmetry_cell_setting 'hexagonal'
loop_
_space_group_symop_operation_xyz
x,y,z
x-y,x,z
-y,x-y,z
-x,-y,z
-x+y,-x,z
y,-x+y,z
x-y,-y,-z
-x,-x+y,-z
y,x,-z
-y,-x,-z
-x+y,y,-z
x,x-y,-z
-x,-y,-z
-x+y,-x,-z
y,-x+y,-z
x,y,-z
x-y,x,-z
-y,x-y,-z
-x+y,y,z
x,x-y,z
-y,-x,z
y,x,z
x-y,-y,z
-x,-x+y,z
loop_
_atom_site_type_symbol
_atom_site_label
_atom_site_fract_x
_atom_site_fract_y
_atom_site_fract_z
Si Si1 0.223949 0.305846 0.000000
Si Si2 0.523070 0.335370 0.294969
Si Si3 0.083626 0.685542 0.225349
Si Si4 0.334308 0.515811 0.500000
Si Si5 0.351197 0.914380 0.606167
Si Si6 0.081049 0.774203 0.330984
Si Si7 0.229964 0.314204 0.120601
O O1 0.252367 0.344504 0.941514
O O2 0.240822 0.240822 0.000000
O O3 0.139194 0.278387 0.000000
O O4 0.508629 0.254315 0.305764
O O5 0.607864 0.392137 0.290449
O O6 0.479066 0.335682 0.241614
O O7 0.490130 0.361520 0.343654
O O8 0.089482 0.741094 0.273404
O O9 0.096367 0.724518 0.167358
O O10 0.000000 0.620032 0.227772
O O11 0.400991 0.599010 0.500000
O O12 0.256684 0.513367 0.500000
O O13 0.343085 0.474762 0.447578
O O14 0.276463 0.912672 0.622601
O O15 0.412297 0.000000 0.602481
O O16 0.144248 0.855753 0.336460
O O17 0.000000 0.760467 0.332557
O O18 0.145537 0.291073 0.127055
O O19 0.250492 0.250492 0.126606
#
# Coordination Sequence:
#
# PCOD9588114 Si02
#       7
#    12  24  24  12  24  24  24
#     4   8  14  22  34  53  79 109 139 175 217 263
#     4  11  21  33  48  67  93 120 145 173 211 261
#     4   9  17  28  45  65  84 109 142 182 220 254
#     4  12  24  37  51  67  92 123 153 181 213 258
#     4  10  21  35  52  70  88 114 148 188 223 249
#     4   9  16  28  45  65  87 111 141 176 217 258
#     4   9  15  24  38  58  83 111 144 180 221 264
#
# _framework density 15.098438
#
# number of rings (size 3 to 8) (size 9 to 14) (size 15 to 20)
#    0.000    2.333    0.000    6.500    0.000    2.667 
#    0.000    1.667    0.000    0.417    0.000    2.917 
#    0.000    7.333    0.000    1.833    0.000   18.167 
#
# Total GULP energy -801733.931458 kJ/mol
# GULP energy per Si atom -5567.596746 kJ/mol
# Density = 1.506407 g / cm^3
# Si number density = 15.098438 Si / 1000 Ang^3
#
#
#
# Elastic Constant Matrix: (Units=GPa)
#
#
# Indices 1 2 3 4 5 6 
#
# 1 70.8148 40.8683 32.9603 0.0000 0.0000 0.0000
# 2 40.8683 70.8148 32.9603 0.0000 0.0000 0.0000
# 3 32.9603 32.9603 105.3901 0.0000 0.0000 0.0000
# 4 0.0000 0.0000 0.0000 12.0723 0.0000 0.0000
# 5 0.0000 0.0000 0.0000 0.0000 12.0723 0.0000
# 6 0.0000 0.0000 0.0000 0.0000 0.0000 14.9732
#
#
#
# Elastic Compliance Matrix: (Units=1/GPa)
#
#
# Indices 1 2 3 4 5 6 
#
# 1 0.022187 -0.011206 -0.003434 0.000000 0.000000 0.000000
# 2 -0.011206 0.022187 -0.003434 0.000000 0.000000 0.000000
# 3 -0.003434 -0.003434 0.011637 0.000000 0.000000 0.000000
# 4 0.000000 0.000000 0.000000 0.082834 0.000000 0.000000
# 5 0.000000 0.000000 0.000000 0.000000 0.082834 0.000000
# 6 0.000000 0.000000 0.000000 0.000000 0.000000 0.066786
#
#
# Mechanical properties :
#
#
# Convention : Reuss Voigt Hill
#
# Bulk Modulus (GPa) = 50.34848 51.17752 50.76300
# Shear Modulus (GPa) = 15.09505 17.17228 16.13366
#
# Velocity S-wave (km/s) = 3.16535 3.37613 3.27244
# Velocity P-wave (km/s) = 6.83948 7.01193 6.92624
#
# Compressibility (1/GPa) = 0.01986157
#
# Stress axis : x y z
#
# Youngs Moduli (GPa) = 45.07154 45.07154 85.93536
#
# Poissons Ratio (x) = 0.50507 0.29512
# Poissons Ratio (y) = 0.50507 0.29512
# Poissons Ratio (z) = 0.15479 0.15479
#
# Static dielectric constant tensor:
#      x y z
#    x 1.499810 0.000000 0.000000 
#    y 0.000000 1.499810 0.000000 
#    z 0.000000 0.000000 1.525220 
# 
# From -- ./inp_files/8887.got.cif
#   From: 2010.05.17/outbox.cif.g08.bks.cpg/sg191_5_cif.got.tgz:8887.got - 2010.05.20 12:20:32.
