data_PCOD9588813
_publ_section_title
;
Structure prediction by ZEFSAII (Michael W. Deem and Ramdas Pophale) SiO2 
 PCOD9588813
Probable space group: P 6/M C C
;
_chemical_formula_sum "Si O2"
_cell_formula_units_Z 80
_cell_length_a 18.382578
_cell_length_b 18.382578
_cell_length_c 14.253341
_cell_angle_alpha 90.000000
_cell_angle_beta 90.000000
_cell_angle_gamma 120.000000
_cell_volume 4171.191626
_symmetry_space_group_name_H-M "P 6/M C C"
_symmetry_group_IT_number 192
_symmetry_cell_setting 'hexagonal'
loop_
_space_group_symop_operation_xyz
x,y,z
x-y,x,z
-y,x-y,z
-x,-y,z
-x+y,-x,z
y,-x+y,z
x-y,-y,1/2-z
-x,-x+y,1/2-z
y,x,1/2-z
-y,-x,1/2-z
-x+y,y,1/2-z
x,x-y,1/2-z
-x,-y,-z
-x+y,-x,-z
y,-x+y,-z
x,y,-z
x-y,x,-z
-y,x-y,-z
-x+y,y,1/2+z
x,x-y,1/2+z
-y,-x,1/2+z
y,x,1/2+z
x-y,-y,1/2+z
-x,-x+y,1/2+z
loop_
_atom_site_type_symbol
_atom_site_label
_atom_site_fract_x
_atom_site_fract_y
_atom_site_fract_z
Si Si1 0.666667 0.333333 0.137592
Si Si2 0.280211 0.931577 0.000000
Si Si3 0.077714 0.616171 0.675112
Si Si4 0.160597 0.651731 0.142805
Si Si5 0.118068 0.362598 0.500000
O O1 0.666668 0.333334 0.250000
O O2 0.581204 0.250856 0.109027
O O3 0.329086 0.927355 0.907661
O O4 0.187656 0.852291 0.000000
O O5 0.288472 0.022537 0.000000
O O6 0.096964 0.546105 0.631105
O O7 0.000000 0.582918 0.750000
O O8 0.843535 0.508934 0.754208
O O9 0.132169 0.708113 0.087401
#
# Coordination Sequence:
#
# PCOD9588813 Si02
#       5
#     8  12  24  24  12
#     4  12  21  34  56  85 129 171 226 256 302 367
#     4  12  27  43  63  96 117 167 212 273 335 394
#     4  11  22  40  63  90 128 171 223 263 320 380
#     4  11  23  38  59  88 126 179 211 269 305 363
#     4  12  27  43  65  90 129 159 221 272 328 411
#
# _framework density 19.179171
#
# number of rings (size 3 to 8) (size 9 to 14) (size 15 to 20)
#    0.000    0.600    6.000    4.500    0.000    2.400 
#    0.000    0.000    0.000    0.300    0.000    0.000 
#    0.000    0.000    1.800    0.000    0.000    0.000 
#
# Total GULP energy -447015.304742 kJ/mol
# GULP energy per Si atom -5587.691309 kJ/mol
# Density = 1.913552 g / cm^3
# Si number density = 19.179171 Si / 1000 Ang^3
#
#
#
# Elastic Constant Matrix: (Units=GPa)
#
#
# Indices 1 2 3 4 5 6 
#
# 1 136.4875 72.9861 39.5018 0.0000 0.0001 0.0000
# 2 72.9861 136.4877 39.5017 -0.0001 0.0000 0.0000
# 3 39.5018 39.5017 92.9261 -0.0002 -0.0001 0.0000
# 4 0.0000 -0.0001 -0.0002 -45.5231 0.0162 0.0000
# 5 0.0001 0.0000 -0.0001 0.0162 -45.5026 -0.0001
# 6 0.0000 0.0000 0.0000 0.0000 -0.0001 31.7508
#
#
#
# Elastic Compliance Matrix: (Units=1/GPa)
#
#
# Indices 1 2 3 4 5 6 
#
# 1 0.010717 -0.005031 -0.002417 0.000000 0.000000 0.000000
# 2 -0.005031 0.010716 -0.002417 0.000000 0.000000 0.000000
# 3 -0.002417 -0.002417 0.012816 0.000000 0.000000 0.000000
# 4 0.000000 0.000000 0.000000 -0.021967 -0.000008 0.000000
# 5 0.000000 0.000000 0.000000 -0.000008 -0.021977 0.000000
# 6 0.000000 0.000000 0.000000 0.000000 0.000000 0.031495
#
#
# Mechanical properties :
#
#
# Convention : Reuss Voigt Hill
#
# Bulk Modulus (GPa) = 68.87272 74.43116 71.65194
# Shear Modulus (GPa) = 107.82877 2.40581 55.11729
#
# Velocity S-wave (km/s) = 7.50625 1.12121 5.36661
# Velocity P-wave (km/s) = 10.54103 6.36936 8.70867
#
# Compressibility (1/GPa) = 0.01451954
#
# Stress axis : x y z
#
# Youngs Moduli (GPa) = 93.31386 93.31408 78.02795
#
# Poissons Ratio (x) = 0.46948 0.18858
# Poissons Ratio (y) = 0.46948 0.18858
# Poissons Ratio (z) = 0.22552 0.22552
#
# Static dielectric constant tensor:
#      x y z
#    x 1.722650 0.000000 0.000000 
#    y 0.000000 1.722650 0.000000 
#    z 0.000000 0.000000 1.722710 
# 
# From -- ./inp_files/3965.got.cif
#   From: 2010.05.17/outbox.cif.g08.bks.cpg/sg192_2_cif.got.tgz:3965.got - 2010.05.20 12:28:01.
