data_PCOD9588031
_publ_section_title
;
Structure prediction by ZEFSAII (Michael W. Deem and Ramdas Pophale) SiO2 
 PCOD9588031
Probable space group: P 6/M M M
;
_chemical_formula_sum "Si O2"
_cell_formula_units_Z 156
_cell_length_a 21.635985
_cell_length_b 21.635985
_cell_length_c 24.086623
_cell_angle_alpha 90.000000
_cell_angle_beta 90.000000
_cell_angle_gamma 120.000000
_cell_volume 9764.722151
_symmetry_space_group_name_H-M "P 6/M M M"
_symmetry_group_IT_number 191
_symmetry_cell_setting 'hexagonal'
loop_
_space_group_symop_operation_xyz
x,y,z
x-y,x,z
-y,x-y,z
-x,-y,z
-x+y,-x,z
y,-x+y,z
x-y,-y,-z
-x,-x+y,-z
y,x,-z
-y,-x,-z
-x+y,y,-z
x,x-y,-z
-x,-y,-z
-x+y,-x,-z
y,-x+y,-z
x,y,-z
x-y,x,-z
-y,x-y,-z
-x+y,y,z
x,x-y,z
-y,-x,z
y,x,z
x-y,-y,z
-x,-x+y,z
loop_
_atom_site_type_symbol
_atom_site_label
_atom_site_fract_x
_atom_site_fract_y
_atom_site_fract_z
Si Si1 0.466094 0.304302 0.376221
Si Si2 0.646404 0.563922 0.839368
Si Si3 0.473331 0.666700 0.748506
Si Si4 0.920906 0.219855 0.209029
Si Si5 0.458078 0.916157 0.566495
Si Si6 0.222771 0.917780 0.658711
Si Si7 0.810997 0.333343 0.065421
O O1 0.480056 0.240028 0.395026
O O2 0.496797 0.324517 0.313662
O O3 0.502005 0.376778 0.411213
O O4 0.380719 0.269908 0.371424
O O5 0.586148 0.586148 0.840091
O O6 0.637916 0.511181 0.789472
O O7 0.720954 0.635333 0.825962
O O8 0.651038 0.528066 0.895933
O O9 0.488278 0.744139 0.767632
O O10 0.389714 0.610287 0.747966
O O11 0.858152 0.141849 0.195209
O O12 0.914269 0.233046 0.274657
O O13 0.000000 0.233179 0.201075
O O14 0.457626 0.915251 0.500000
O O15 0.500000 0.000000 0.584602
O O16 0.139967 0.860034 0.647419
O O17 0.250131 0.000000 0.644906
O O18 0.793293 0.396647 0.074309
O O19 0.742267 0.257734 0.079820
O O20 0.826292 0.332749 0.000000
#
# Coordination Sequence:
#
# PCOD9588031 Si02
#       7
#    24  24  24  24  12  24  24
#     4  10  20  35  54  76 100 131 172 219 263 309
#     4  11  22  33  48  72 100 129 162 198 247 304
#     4  11  21  34  51  73  99 128 158 206 258 306
#     4   9  16  27  44  67  95 124 155 193 236 287
#     4  11  24  40  56  76 104 140 179 219 267 321
#     4   9  16  28  48  73 100 130 164 203 250 298
#     4  10  21  37  55  71  91 124 166 209 249 295
#
# _framework density 15.975877000000001
#
# number of rings (size 3 to 8) (size 9 to 14) (size 15 to 20)
#    0.000    1.923    2.308    2.615    0.000    3.077 
#    0.462    2.308    0.000    0.308    0.000    2.154 
#    0.000    0.000    0.000    0.000    0.000    0.000 
#
# Total GULP energy -870244.331784 kJ/mol
# GULP energy per Si atom -5578.489306 kJ/mol
# Density = 1.593952 g / cm^3
# Si number density = 15.975877 Si / 1000 Ang^3
#
#
#
# Elastic Constant Matrix: (Units=GPa)
#
#
# Indices 1 2 3 4 5 6 
#
# 1 108.7560 66.3718 41.9336 0.0000 0.0000 0.0000
# 2 66.3718 108.7560 41.9336 0.0000 0.0000 0.0000
# 3 41.9336 41.9336 46.5122 0.0000 0.0000 0.0000
# 4 0.0000 0.0000 0.0000 19.5781 0.0000 0.0000
# 5 0.0000 0.0000 0.0000 0.0000 19.5781 0.0000
# 6 0.0000 0.0000 0.0000 0.0000 0.0000 21.1921
#
#
#
# Elastic Compliance Matrix: (Units=1/GPa)
#
#
# Indices 1 2 3 4 5 6 
#
# 1 0.016821 -0.006773 -0.009059 0.000000 0.000000 0.000000
# 2 -0.006773 0.016821 -0.009059 0.000000 0.000000 0.000000
# 3 -0.009059 -0.009059 0.037835 0.000000 0.000000 0.000000
# 4 0.000000 0.000000 0.000000 0.051077 0.000000 0.000000
# 5 0.000000 0.000000 0.000000 0.000000 0.051077 0.000000
# 6 0.000000 0.000000 0.000000 0.000000 0.000000 0.047187
#
#
# Mechanical properties :
#
#
# Convention : Reuss Voigt Hill
#
# Bulk Modulus (GPa) = 46.09470 62.72247 54.40859
# Shear Modulus (GPa) = 17.99638 19.65536 18.82587
#
# Velocity S-wave (km/s) = 3.35994 3.51139 3.43650
# Velocity P-wave (km/s) = 6.63080 7.46899 7.06234
#
# Compressibility (1/GPa) = 0.02169447
#
# Stress axis : x y z
#
# Youngs Moduli (GPa) = 59.44906 59.44906 26.43059
#
# Poissons Ratio (x) = 0.40262 0.23945
# Poissons Ratio (y) = 0.40262 0.23945
# Poissons Ratio (z) = 0.53857 0.53857
#
# Static dielectric constant tensor:
#      x y z
#    x 1.534010 0.000000 0.000000 
#    y 0.000000 1.534010 0.000000 
#    z 0.000000 0.000000 1.520240 
# 
# From -- ./inp_files/7755.got.cif
#   From: 2010.05.17/outbox.cif.g08.bks.cpg/sg191_4_cif.got.tgz:7755.got - 2010.05.20 12:20:32.
