data_PCOD9588292
_publ_section_title
;
Structure prediction by ZEFSAII (Michael W. Deem and Ramdas Pophale) SiO2 
 PCOD9588292
Probable space group: P 6/M C C
;
_chemical_formula_sum "Si O2"
_cell_formula_units_Z 96
_cell_length_a 28.133292
_cell_length_b 28.133292
_cell_length_c 9.163109
_cell_angle_alpha 90.000000
_cell_angle_beta 90.000000
_cell_angle_gamma 120.000000
_cell_volume 6280.794617
_symmetry_space_group_name_H-M "P 6/M C C"
_symmetry_group_IT_number 192
_symmetry_cell_setting 'hexagonal'
loop_
_space_group_symop_operation_xyz
x,y,z
x-y,x,z
-y,x-y,z
-x,-y,z
-x+y,-x,z
y,-x+y,z
x-y,-y,1/2-z
-x,-x+y,1/2-z
y,x,1/2-z
-y,-x,1/2-z
-x+y,y,1/2-z
x,x-y,1/2-z
-x,-y,-z
-x+y,-x,-z
y,-x+y,-z
x,y,-z
x-y,x,-z
-y,x-y,-z
-x+y,y,1/2+z
x,x-y,1/2+z
-y,-x,1/2+z
y,x,1/2+z
x-y,-y,1/2+z
-x,-x+y,1/2+z
loop_
_atom_site_type_symbol
_atom_site_label
_atom_site_fract_x
_atom_site_fract_y
_atom_site_fract_z
Si Si1 0.059191 0.388242 0.826096
Si Si2 0.938746 0.516833 0.677558
Si Si3 0.190313 0.190313 0.250000
Si Si4 0.884375 0.888644 0.000000
Si Si5 0.695210 0.897353 0.673321
O O1 0.085416 0.445993 0.739907
O O2 0.091843 0.355510 0.812158
O O3 0.000000 0.350418 0.750000
O O4 0.052373 0.395497 0.000000
O O5 0.913350 0.456675 0.750000
O O6 0.940820 0.515800 0.500000
O O7 0.000000 0.548823 0.750000
O O8 0.149401 0.154384 0.374512
O O9 0.197726 0.250683 0.252787
O O10 0.943127 0.892212 0.000000
O O11 0.683712 0.841856 0.750000
O O12 0.706340 0.897117 0.500000
#
# Coordination Sequence:
#
# PCOD9588292 Si02
#       5
#    24  24  12  12  24
#     4  10  19  32  47  71  97 125 161 201 241 289
#     4  10  17  27  44  67  96 131 162 194 226 262
#     4  12  24  40  55  78  93 120 154 198 252 322
#     4  12  25  42  60  76  96 114 145 192 260 334
#     4  11  24  38  55  74  96 126 162 207 257 310
#
# _framework density 15.284691
#
# number of rings (size 3 to 8) (size 9 to 14) (size 15 to 20)
#    0.000    1.250    2.500    7.625    1.750    2.000 
#    0.000    1.250    0.000    0.000    0.000    0.000 
#    0.000    0.000    0.000    0.750    0.000   12.000 
#
# Total GULP energy -534616.657592 kJ/mol
# GULP energy per Si atom -5568.923517 kJ/mol
# Density = 1.524990 g / cm^3
# Si number density = 15.284691 Si / 1000 Ang^3
#
#
#
# Elastic Constant Matrix: (Units=GPa)
#
#
# Indices 1 2 3 4 5 6 
#
# 1 91.3061 66.3969 73.9104 0.0000 0.0000 0.0000
# 2 66.3969 91.3061 73.9104 0.0000 0.0000 0.0000
# 3 73.9104 73.9104 229.7009 0.0000 0.0000 0.0000
# 4 0.0000 0.0000 0.0000 23.1651 0.0000 0.0000
# 5 0.0000 0.0000 0.0000 0.0000 23.1651 0.0000
# 6 0.0000 0.0000 0.0000 0.0000 0.0000 12.4546
#
#
#
# Elastic Compliance Matrix: (Units=1/GPa)
#
#
# Indices 1 2 3 4 5 6 
#
# 1 0.024613 -0.015533 -0.002921 0.000000 0.000000 0.000000
# 2 -0.015533 0.024613 -0.002921 0.000000 0.000000 0.000000
# 3 -0.002921 -0.002921 0.006234 0.000000 0.000000 0.000000
# 4 0.000000 0.000000 0.000000 0.043168 0.000000 0.000000
# 5 0.000000 0.000000 0.000000 0.000000 0.043168 0.000000
# 6 0.000000 0.000000 0.000000 0.000000 0.000000 0.080292
#
#
# Mechanical properties :
#
#
# Convention : Reuss Voigt Hill
#
# Bulk Modulus (GPa) = 78.69959 93.41651 86.05805
# Shear Modulus (GPa) = 18.58218 24.96332 21.77275
#
# Velocity S-wave (km/s) = 3.49053 4.04570 3.77832
# Velocity P-wave (km/s) = 8.23687 9.11449 8.68677
#
# Compressibility (1/GPa) = 0.01270655
#
# Stress axis : x y z
#
# Youngs Moduli (GPa) = 40.62954 40.62954 160.42187
#
# Poissons Ratio (x) = 0.63111 0.46867
# Poissons Ratio (y) = 0.63111 0.46867
# Poissons Ratio (z) = 0.11870 0.11870
#
# Static dielectric constant tensor:
#      x y z
#    x 1.518420 0.000000 0.000000 
#    y 0.000000 1.518420 0.000000 
#    z 0.000000 0.000000 1.512190 
# 
# From -- ./inp_files/930.got.cif
#   From: 2010.05.17/outbox.cif.g08.bks.cpg/sg192_1_cif.got.tgz:930.got - 2010.05.20 12:28:01.
