data_PCOD9588951
_publ_section_title
;
Structure prediction by ZEFSAII (Michael W. Deem and Ramdas Pophale) SiO2 
 PCOD9588951
Probable space group: P 63/M C M
;
_chemical_formula_sum "Si O2"
_cell_formula_units_Z 92
_cell_length_a 16.993152
_cell_length_b 16.993152
_cell_length_c 23.049347
_cell_angle_alpha 90.000000
_cell_angle_beta 90.000000
_cell_angle_gamma 120.000000
_cell_volume 5764.174794
_symmetry_space_group_name_H-M "P 63/M C M"
_symmetry_group_IT_number 193
_symmetry_cell_setting 'hexagonal'
loop_
_space_group_symop_operation_xyz
x,y,z
x-y,x,1/2+z
-y,x-y,z
-x,-y,1/2+z
-x+y,-x,z
y,-x+y,1/2+z
x-y,-y,1/2-z
-x,-x+y,1/2-z
y,x,1/2-z
-y,-x,-z
-x+y,y,-z
x,x-y,-z
-x,-y,-z
-x+y,-x,1/2-z
y,-x+y,-z
x,y,1/2-z
x-y,x,-z
-y,x-y,1/2-z
-x+y,y,1/2+z
x,x-y,1/2+z
-y,-x,1/2+z
y,x,z
x-y,-y,z
-x,-x+y,z
loop_
_atom_site_type_symbol
_atom_site_label
_atom_site_fract_x
_atom_site_fract_y
_atom_site_fract_z
Si Si1 0.141757 0.560286 0.623240
Si Si2 0.606554 0.213118 0.250000
Si Si3 0.666667 0.333334 0.568506
Si Si4 0.710056 0.608187 0.432048
Si Si5 0.278306 0.377379 0.429600
O O1 0.155130 0.576692 0.691785
O O2 0.239102 0.592810 0.594304
O O3 0.110055 0.627180 0.595920
O O4 0.093507 0.455712 0.605968
O O5 0.715663 0.284547 0.250000
O O6 0.666668 0.333334 0.500000
O O7 0.689321 0.689321 0.418915
O O8 0.705218 0.596586 0.501974
O O9 0.809759 0.626025 0.414011
O O10 0.287005 0.287005 0.423129
#
# Coordination Sequence:
#
# PCOD9588951 Si02
#       5
#    24  12   8  24  24
#     4  12  19  31  49  71 101 136 172 199 242 287
#     4  10  18  32  43  66 102 144 174 200 227 288
#     4  12  18  25  47  73  99 132 166 197 238 282
#     4  10  20  33  50  73  99 126 162 212 260 301
#     4  10  20  33  50  73  99 126 162 212 260 301
#
# _framework density 15.960654999999999
#
# number of rings (size 3 to 8) (size 9 to 14) (size 15 to 20)
#    0.261    1.043    5.217    3.130    0.000    2.087 
#    0.000    2.609    0.000    0.522    0.000    3.652 
#    0.000    0.000    0.000    0.000    0.000   12.000 
#
# Total GULP energy -512352.108087 kJ/mol
# GULP energy per Si atom -5569.044653 kJ/mol
# Density = 1.592433 g / cm^3
# Si number density = 15.960655 Si / 1000 Ang^3
#
#
#
# Elastic Constant Matrix: (Units=GPa)
#
#
# Indices 1 2 3 4 5 6 
#
# 1 84.2647 65.9083 23.7012 0.0060 0.0011 -0.0076
# 2 65.9083 84.2614 23.7034 -0.0050 -0.0003 0.0043
# 3 23.7012 23.7034 73.2042 -0.0010 0.0002 0.0001
# 4 0.0060 -0.0050 -0.0010 -38.4612 0.0020 0.0007
# 5 0.0011 -0.0003 0.0002 0.0020 -38.4816 -0.0055
# 6 -0.0076 0.0043 0.0001 0.0007 -0.0055 9.1757
#
#
#
# Elastic Compliance Matrix: (Units=1/GPa)
#
#
# Indices 1 2 3 4 5 6 
#
# 1 0.030949 -0.023532 -0.002400 0.000008 0.000001 0.000037
# 2 -0.023532 0.030950 -0.002403 -0.000008 -0.000001 -0.000034
# 3 -0.002400 -0.002403 0.015216 0.000000 0.000000 -0.000001
# 4 0.000008 -0.000008 0.000000 -0.026000 -0.000001 0.000002
# 5 0.000001 -0.000001 0.000000 -0.000001 -0.025986 -0.000016
# 6 0.000037 -0.000034 -0.000001 0.000002 -0.000016 0.108983
#
#
# Mechanical properties :
#
#
# Convention : Reuss Voigt Hill
#
# Bulk Modulus (GPa) = 48.91482 52.03955 50.47719
# Shear Modulus (GPa) = 25.30411 -4.99226 10.15592
#
# Velocity S-wave (km/s) = 3.98603 -1.77049 2.52526
# Velocity P-wave (km/s) = 7.20405 5.33818 6.34013
#
# Compressibility (1/GPa) = 0.02044370
#
# Stress axis : x y z
#
# Youngs Moduli (GPa) = 32.31174 32.30979 65.72206
#
# Poissons Ratio (x) = 0.76032 0.15776
# Poissons Ratio (y) = 0.76037 0.15791
# Poissons Ratio (z) = 0.07756 0.07763
#
# Static dielectric constant tensor:
#      x y z
#    x 1.552200 0.000000 0.000000 
#    y 0.000000 1.552190 0.000000 
#    z 0.000000 0.000000 1.461890 
# 
# From -- ./inp_files/7227.got.cif
#   From: 2010.05.17/outbox.cif.g08.bks.cpg/sg193_4_cif.got.tgz:7227.got - 2010.05.20 12:33:02.
