data_PCOD9588108
_publ_section_title
;
Structure prediction by ZEFSAII (Michael W. Deem and Ramdas Pophale) SiO2 
 PCOD9588108
Probable space group: P 6/M M M
;
_chemical_formula_sum "Si O2"
_cell_formula_units_Z 168
_cell_length_a 18.697709
_cell_length_b 18.697709
_cell_length_c 35.191504
_cell_angle_alpha 90.000000
_cell_angle_beta 90.000000
_cell_angle_gamma 120.000000
_cell_volume 10654.798783
_symmetry_space_group_name_H-M "P 6/M M M"
_symmetry_group_IT_number 191
_symmetry_cell_setting 'hexagonal'
loop_
_space_group_symop_operation_xyz
x,y,z
x-y,x,z
-y,x-y,z
-x,-y,z
-x+y,-x,z
y,-x+y,z
x-y,-y,-z
-x,-x+y,-z
y,x,-z
-y,-x,-z
-x+y,y,-z
x,x-y,-z
-x,-y,-z
-x+y,-x,-z
y,-x+y,-z
x,y,-z
x-y,x,-z
-y,x-y,-z
-x+y,y,z
x,x-y,z
-y,-x,z
y,x,z
x-y,-y,z
-x,-x+y,z
loop_
_atom_site_type_symbol
_atom_site_label
_atom_site_fract_x
_atom_site_fract_y
_atom_site_fract_z
Si Si1 0.500361 0.834497 0.255916
Si Si2 0.666107 0.498994 0.045096
Si Si3 0.256178 0.907659 0.310877
Si Si4 0.094952 0.358340 0.105108
Si Si5 0.165698 0.666350 0.166830
Si Si6 0.164534 0.498246 0.543891
Si Si7 0.743126 0.650397 0.399557
O O1 0.420574 0.841148 0.265342
O O2 0.480875 0.740437 0.260487
O O3 0.576468 0.889275 0.283159
O O4 0.519981 0.855489 0.211356
O O5 0.737755 0.475509 0.051662
O O6 0.577393 0.422608 0.056412
O O7 0.694325 0.581648 0.068879
O O8 0.664022 0.512602 0.000000
O O9 0.162412 0.837589 0.303464
O O10 0.274277 0.899647 0.355146
O O11 0.275231 0.000000 0.305076
O O12 0.166699 0.333397 0.105291
O O13 0.113276 0.419848 0.140790
O O14 0.000000 0.286155 0.105383
O O15 0.155859 0.577930 0.156812
O O16 0.261266 0.738735 0.162109
O O17 0.139318 0.472945 0.500000
O O18 0.258912 0.517823 0.547374
O O19 0.159365 0.579683 0.551474
O O20 0.111830 0.425422 0.573077
O O21 0.837064 0.674128 0.407047
O O22 0.723086 0.723086 0.405683
#
# Coordination Sequence:
#
# PCOD9588108 Si02
#       7
#    24  24  24  24  24  24  24
#     4   9  17  29  45  66  93 125 158 187 213 244
#     4   9  17  29  46  69  98 131 162 187 211 246
#     4   9  18  32  48  65  86 113 145 181 223 269
#     4  10  21  35  49  66  89 117 149 187 232 277
#     4   9  17  29  46  68  95 126 156 183 211 248
#     4   9  17  29  45  65  90 120 152 183 213 246
#     4   9  18  32  48  65  86 113 144 179 221 268
#
# _framework density 15.767543
#
# number of rings (size 3 to 8) (size 9 to 14) (size 15 to 20)
#    0.000    2.857    0.000    1.000    0.000    5.714 
#    0.000    5.714    0.000    2.143    0.000    2.000 
#    0.000    0.000    0.000   14.286    0.000    7.429 
#
# Total GULP energy -936182.660437 kJ/mol
# GULP energy per Si atom -5572.515836 kJ/mol
# Density = 1.573166 g / cm^3
# Si number density = 15.767543 Si / 1000 Ang^3
#
#
#
# Elastic Constant Matrix: (Units=GPa)
#
#
# Indices 1 2 3 4 5 6 
#
# 1 77.4637 68.4470 46.8308 0.0000 0.0000 0.0000
# 2 68.4470 77.4637 46.8308 0.0000 0.0000 0.0000
# 3 46.8308 46.8308 53.9590 0.0000 0.0000 0.0000
# 4 0.0000 0.0000 0.0000 18.5025 0.0000 0.0000
# 5 0.0000 0.0000 0.0000 0.0000 18.5025 0.0000
# 6 0.0000 0.0000 0.0000 0.0000 0.0000 4.5084
#
#
#
# Elastic Compliance Matrix: (Units=1/GPa)
#
#
# Indices 1 2 3 4 5 6 
#
# 1 0.063190 -0.047715 -0.013430 0.000000 0.000000 0.000000
# 2 -0.047715 0.063190 -0.013430 0.000000 0.000000 0.000000
# 3 -0.013430 -0.013430 0.041845 0.000000 0.000000 0.000000
# 4 0.000000 0.000000 0.000000 0.054047 0.000000 0.000000
# 5 0.000000 0.000000 0.000000 0.000000 0.054047 0.000000
# 6 0.000000 0.000000 0.000000 0.000000 0.000000 0.221809
#
#
# Mechanical properties :
#
#
# Convention : Reuss Voigt Hill
#
# Bulk Modulus (GPa) = 52.43097 59.23375 55.83236
# Shear Modulus (GPa) = 7.64951 11.42118 9.53535
#
# Velocity S-wave (km/s) = 2.20499 2.69429 2.46182
# Velocity P-wave (km/s) = 6.30930 6.87949 6.60055
#
# Compressibility (1/GPa) = 0.01907270
#
# Stress axis : x y z
#
# Youngs Moduli (GPa) = 15.82537 15.82537 23.89777
#
# Poissons Ratio (x) = 0.75511 0.32096
# Poissons Ratio (y) = 0.75511 0.32096
# Poissons Ratio (z) = 0.21254 0.21254
#
# Static dielectric constant tensor:
#      x y z
#    x 1.509740 0.000000 0.000000 
#    y 0.000000 1.509740 0.000000 
#    z 0.000000 0.000000 1.541520 
# 
# From -- ./inp_files/10756.got.cif
#   From: 2010.05.17/outbox.cif.g08.bks.cpg/sg191_6_cif.got.tgz:10756.got - 2010.05.20 12:20:32.
