data_PCOD9588407
_publ_section_title
;
Structure prediction by ZEFSAII (Michael W. Deem and Ramdas Pophale) SiO2 
 PCOD9588407
Probable space group: P 6/M C C
;
_chemical_formula_sum "Si O2"
_cell_formula_units_Z 144
_cell_length_a 33.464450
_cell_length_b 33.464450
_cell_length_c 8.838694
_cell_angle_alpha 90.000000
_cell_angle_beta 90.000000
_cell_angle_gamma 120.000000
_cell_volume 8572.077989
_symmetry_space_group_name_H-M "P 6/M C C"
_symmetry_group_IT_number 192
_symmetry_cell_setting 'hexagonal'
loop_
_space_group_symop_operation_xyz
x,y,z
x-y,x,z
-y,x-y,z
-x,-y,z
-x+y,-x,z
y,-x+y,z
x-y,-y,1/2-z
-x,-x+y,1/2-z
y,x,1/2-z
-y,-x,1/2-z
-x+y,y,1/2-z
x,x-y,1/2-z
-x,-y,-z
-x+y,-x,-z
y,-x+y,-z
x,y,-z
x-y,x,-z
-y,x-y,-z
-x+y,y,1/2+z
x,x-y,1/2+z
-y,-x,1/2+z
y,x,1/2+z
x-y,-y,1/2+z
-x,-x+y,1/2+z
loop_
_atom_site_type_symbol
_atom_site_label
_atom_site_fract_x
_atom_site_fract_y
_atom_site_fract_z
Si Si1 0.367148 0.139324 0.181754
Si Si2 0.382203 0.529779 0.181545
Si Si3 0.861789 0.050206 0.181218
Si Si4 0.955223 0.433119 0.820309
Si Si5 0.232490 0.282465 0.681020
Si Si6 0.279864 0.472836 0.182225
O O1 0.359473 0.179737 0.250000
O O2 0.329124 0.090724 0.248810
O O3 0.420106 0.154258 0.220321
O O4 0.362991 0.138935 0.000000
O O5 0.422961 0.577040 0.250000
O O6 0.392100 0.487806 0.213879
O O7 0.330409 0.511483 0.234718
O O8 0.384626 0.535512 0.000000
O O9 0.908658 0.091343 0.250000
O O10 0.819036 0.058862 0.215638
O O11 0.846739 0.000000 0.250000
O O12 0.865626 0.048974 0.000000
O O13 0.954016 0.477008 0.750000
O O14 0.000000 0.434657 0.750000
O O15 0.960974 0.438602 0.000000
O O16 0.267478 0.267478 0.750000
O O17 0.237372 0.286324 0.500000
O O18 0.240263 0.480525 0.250000
O O19 0.279116 0.474951 0.000000
#
# Coordination Sequence:
#
# PCOD9588407 Si02
#       6
#    24  24  24  24  24  24
#     4  10  19  32  51  72  97 130 167 206 247 293
#     4   9  18  32  50  73 100 128 160 199 243 288
#     4  10  20  33  50  72  98 128 163 205 253 303
#     4   9  15  24  40  62  90 121 151 184 221 263
#     4  10  20  33  50  73 102 134 168 207 251 299
#     4   9  19  35  53  74 100 129 163 205 248 291
#
# _framework density 16.798725999999998
#
# number of rings (size 3 to 8) (size 9 to 14) (size 15 to 20)
#    0.000    2.500    0.000    3.000    0.000    5.333 
#    0.000    0.833    0.000    2.500    0.000    1.167 
#    0.000    0.000    0.000    0.000    0.000    0.000 
#
# Total GULP energy -802576.300860 kJ/mol
# GULP energy per Si atom -5573.446534 kJ/mol
# Density = 1.676049 g / cm^3
# Si number density = 16.798726 Si / 1000 Ang^3
#
#
#
# Elastic Constant Matrix: (Units=GPa)
#
#
# Indices 1 2 3 4 5 6 
#
# 1 118.6747 78.7451 44.0704 0.0000 0.0000 0.0000
# 2 78.7451 118.6747 44.0704 0.0000 0.0000 0.0000
# 3 44.0704 44.0704 50.9738 0.0000 0.0000 0.0000
# 4 0.0000 0.0000 0.0000 22.2946 0.0000 0.0000
# 5 0.0000 0.0000 0.0000 0.0000 22.2946 0.0000
# 6 0.0000 0.0000 0.0000 0.0000 0.0000 19.9648
#
#
#
# Elastic Compliance Matrix: (Units=1/GPa)
#
#
# Indices 1 2 3 4 5 6 
#
# 1 0.016647 -0.008397 -0.007132 0.000000 0.000000 0.000000
# 2 -0.008397 0.016647 -0.007132 0.000000 0.000000 0.000000
# 3 -0.007132 -0.007132 0.031951 0.000000 0.000000 0.000000
# 4 0.000000 0.000000 0.000000 0.044854 0.000000 0.000000
# 5 0.000000 0.000000 0.000000 0.000000 0.044854 0.000000
# 6 0.000000 0.000000 0.000000 0.000000 0.000000 0.050088
#
#
# Mechanical properties :
#
#
# Convention : Reuss Voigt Hill
#
# Bulk Modulus (GPa) = 50.19941 69.12165 59.66053
# Shear Modulus (GPa) = 19.45485 21.00660 20.23073
#
# Velocity S-wave (km/s) = 3.40680 3.54006 3.47407
# Velocity P-wave (km/s) = 6.73964 7.61220 7.18917
#
# Compressibility (1/GPa) = 0.01992055
#
# Stress axis : x y z
#
# Youngs Moduli (GPa) = 60.07118 60.07118 31.29795
#
# Poissons Ratio (x) = 0.50443 0.22323
# Poissons Ratio (y) = 0.50443 0.22323
# Poissons Ratio (z) = 0.42846 0.42846
#
# Static dielectric constant tensor:
#      x y z
#    x 1.567590 0.000000 0.000000 
#    y 0.000000 1.567590 0.000000 
#    z 0.000000 0.000000 1.562510 
# 
# From -- ./inp_files/1172.got.cif
#   From: 2010.05.17/outbox.cif.g08.bks.cpg/sg192_1_cif.got.tgz:1172.got - 2010.05.20 12:28:01.
