data_PCOD9588735
_publ_section_title
;
Structure prediction by ZEFSAII (Michael W. Deem and Ramdas Pophale) SiO2 
 PCOD9588735
Probable space group: P 6/M C C
;
_chemical_formula_sum "Si O2"
_cell_formula_units_Z 116
_cell_length_a 22.174286
_cell_length_b 22.174286
_cell_length_c 14.222140
_cell_angle_alpha 90.000000
_cell_angle_beta 90.000000
_cell_angle_gamma 120.000000
_cell_volume 6056.125557
_symmetry_space_group_name_H-M "P 6/M C C"
_symmetry_group_IT_number 192
_symmetry_cell_setting 'hexagonal'
loop_
_space_group_symop_operation_xyz
x,y,z
x-y,x,z
-y,x-y,z
-x,-y,z
-x+y,-x,z
y,-x+y,z
x-y,-y,1/2-z
-x,-x+y,1/2-z
y,x,1/2-z
-y,-x,1/2-z
-x+y,y,1/2-z
x,x-y,1/2-z
-x,-y,-z
-x+y,-x,-z
y,-x+y,-z
x,y,-z
x-y,x,-z
-y,x-y,-z
-x+y,y,1/2+z
x,x-y,1/2+z
-y,-x,1/2+z
y,x,1/2+z
x-y,-y,1/2+z
-x,-x+y,1/2+z
loop_
_atom_site_type_symbol
_atom_site_label
_atom_site_fract_x
_atom_site_fract_y
_atom_site_fract_z
Si Si1 0.982104 0.611975 0.140737
Si Si2 0.345841 0.207076 0.500000
Si Si3 0.596634 0.213307 0.500000
Si Si4 0.441274 0.303704 0.000000
Si Si5 0.462057 0.370567 0.500000
Si Si6 0.767839 0.747260 0.859671
Si Si7 0.666668 0.333334 0.639201
Si Si8 0.016302 0.150547 0.000000
O O1 0.907667 0.563605 0.092694
O O2 0.000000 0.615256 0.250000
O O3 0.992762 0.687781 0.114997
O O4 0.040072 0.602275 0.088243
O O5 0.381307 0.158867 0.500000
O O6 0.411994 0.286177 0.500000
O O7 0.296906 0.198283 0.591887
O O8 0.519112 0.201500 0.500000
O O9 0.601649 0.144464 0.500000
O O10 0.635463 0.257753 0.592035
O O11 0.764277 0.764277 0.750000
O O12 0.804306 0.820598 0.911983
O O13 0.666668 0.333334 0.750000
O O14 0.079215 0.135906 0.000000
#
# Coordination Sequence:
#
# PCOD9588735 Si02
#       8
#    24  12  12  12  12  24   8  12
#     4   9  20  37  56  87 125 153 196 252 297 357
#     4   9  18  35  63  82 114 155 189 249 299 349
#     4  10  22  39  62  90 118 161 203 243 293 361
#     4  11  21  36  61  89 120 158 202 238 299 365
#     4   9  18  38  58  81 122 158 198 245 298 346
#     4   9  20  38  59  84 111 147 193 248 298 350
#     4  10  23  43  61  83 124 154 197 256 292 344
#     4  11  24  39  56  78 113 152 194 237 295 359
#
# _framework density 19.154159
#
# number of rings (size 3 to 8) (size 9 to 14) (size 15 to 20)
#    0.000    2.483    0.000    3.207    5.793    4.138 
#    3.724    6.207    0.000    1.241    0.000    0.000 
#    0.000    0.000    0.000    0.000    0.000    0.000 
#
# Total GULP energy -645873.752984 kJ/mol
# GULP energy per Si atom -5567.877181 kJ/mol
# Density = 1.911056 g / cm^3
# Si number density = 19.154159 Si / 1000 Ang^3
#
#
#
# Elastic Constant Matrix: (Units=GPa)
#
#
# Indices 1 2 3 4 5 6 
#
# 1 80.1163 21.0437 40.7389 -0.0004 -0.0008 0.0001
# 2 21.0437 80.1166 40.7393 -0.0009 -0.0019 0.0002
# 3 40.7389 40.7393 140.8977 -0.0029 0.0029 0.0002
# 4 -0.0004 -0.0009 -0.0029 -14.2963 0.0161 0.0005
# 5 -0.0008 -0.0019 0.0029 0.0161 -14.2868 -0.0002
# 6 0.0001 0.0002 0.0002 0.0005 -0.0002 29.5365
#
#
#
# Elastic Compliance Matrix: (Units=1/GPa)
#
#
# Indices 1 2 3 4 5 6 
#
# 1 0.014907 -0.002021 -0.003726 0.000000 -0.000001 0.000000
# 2 -0.002021 0.014907 -0.003726 0.000000 -0.000003 0.000000
# 3 -0.003726 -0.003726 0.009252 -0.000002 0.000003 0.000000
# 4 0.000000 0.000000 -0.000002 -0.069948 -0.000079 0.000001
# 5 -0.000001 -0.000003 0.000003 -0.000079 -0.069995 -0.000001
# 6 0.000000 0.000000 0.000000 0.000001 -0.000001 0.033856
#
#
# Mechanical properties :
#
#
# Convention : Reuss Voigt Hill
#
# Bulk Modulus (GPa) = 49.69964 56.24159 52.97062
# Shear Modulus (GPa) = -120.86878 13.43126 -53.71876
#
# Velocity S-wave (km/s) = -7.95237 2.65093 -5.30154
# Velocity P-wave (km/s) = 7.63654 6.22866 3.12414
#
# Compressibility (1/GPa) = 0.02012087
#
# Stress axis : x y z
#
# Youngs Moduli (GPa) = 67.08112 67.08122 108.08481
#
# Poissons Ratio (x) = 0.13557 0.40272
# Poissons Ratio (y) = 0.13557 0.40272
# Poissons Ratio (z) = 0.24994 0.24994
#
# Static dielectric constant tensor:
#      x y z
#    x 1.677480 0.000000 0.000000 
#    y 0.000000 1.677480 0.000000 
#    z 0.000000 0.000000 2.256210 
# 
# From -- ./inp_files/3029.got.cif
#   From: 2010.05.17/outbox.cif.g08.bks.cpg/sg192_2_cif.got.tgz:3029.got - 2010.05.20 12:28:01.
