data_PCOD9588594
_publ_section_title
;
Structure prediction by ZEFSAII (Michael W. Deem and Ramdas Pophale) SiO2 
 PCOD9588594
Probable space group: P 6/M C C
;
_chemical_formula_sum "Si O2"
_cell_formula_units_Z 192
_cell_length_a 23.052410
_cell_length_b 23.052410
_cell_length_c 20.916103
_cell_angle_alpha 90.000000
_cell_angle_beta 90.000000
_cell_angle_gamma 120.000000
_cell_volume 9625.960469
_symmetry_space_group_name_H-M "P 6/M C C"
_symmetry_group_IT_number 192
_symmetry_cell_setting 'hexagonal'
loop_
_space_group_symop_operation_xyz
x,y,z
x-y,x,z
-y,x-y,z
-x,-y,z
-x+y,-x,z
y,-x+y,z
x-y,-y,1/2-z
-x,-x+y,1/2-z
y,x,1/2-z
-y,-x,1/2-z
-x+y,y,1/2-z
x,x-y,1/2-z
-x,-y,-z
-x+y,-x,-z
y,-x+y,-z
x,y,-z
x-y,x,-z
-y,x-y,-z
-x+y,y,1/2+z
x,x-y,1/2+z
-y,-x,1/2+z
y,x,1/2+z
x-y,-y,1/2+z
-x,-x+y,1/2+z
loop_
_atom_site_type_symbol
_atom_site_label
_atom_site_fract_x
_atom_site_fract_y
_atom_site_fract_z
Si Si1 0.163164 0.294366 0.073892
Si Si2 0.378450 0.306792 0.384895
Si Si3 0.067227 0.504144 0.425835
Si Si4 0.718837 0.079122 0.110261
Si Si5 0.960060 0.109515 0.922089
Si Si6 0.214047 0.666633 0.281688
Si Si7 0.514217 0.174831 0.573045
Si Si8 0.127404 0.735780 0.251060
O O1 0.236746 0.357817 0.081578
O O2 0.107634 0.311025 0.097572
O O3 0.157097 0.226012 0.100664
O O4 0.148876 0.280834 0.000000
O O5 0.453656 0.366842 0.393786
O O6 0.330046 0.333320 0.410376
O O7 0.367851 0.285340 0.311313
O O8 0.052419 0.482278 0.500000
O O9 0.124909 0.580781 0.424659
O O10 0.000000 0.500000 0.398023
O O11 0.696149 0.129645 0.080810
O O12 0.714940 0.083120 0.186142
O O13 0.034496 0.129517 0.901526
O O14 0.964075 0.111365 0.000000
O O15 0.285816 0.714185 0.250000
O O16 0.188526 0.594263 0.250000
O O17 0.215846 0.673680 0.359751
O O18 0.167460 0.695369 0.256483
O O19 0.528184 0.204966 0.500000
O O20 0.185703 0.814298 0.250000
#
# Coordination Sequence:
#
# PCOD9588594 Si02
#       8
#    24  24  24  24  24  24  24  24
#     4  11  23  35  53  85 121 160 203 249 310 385
#     4  12  22  37  63  86 120 163 207 251 319 381
#     4  10  20  36  59  92 126 157 200 251 311 376
#     4  11  22  38  59  84 116 161 202 257 314 374
#     4   9  17  31  50  75 110 151 198 249 302 367
#     4  10  21  39  64  89 121 164 210 261 316 373
#     4  10  21  39  62  89 124 164 207 261 321 379
#     4  10  21  40  59  82 116 153 204 258 308 372
#
# _framework density 19.946062000000001
#
# number of rings (size 3 to 8) (size 9 to 14) (size 15 to 20)
#    0.000    1.625    2.500    2.875    0.000    3.000 
#    0.000    0.625    0.000    0.000    0.000    0.000 
#    0.000    0.000    0.000    5.375    0.000    2.375 
#
# Total GULP energy -1070626.683215 kJ/mol
# GULP energy per Si atom -5576.180642 kJ/mol
# Density = 1.990066 g / cm^3
# Si number density = 19.946062 Si / 1000 Ang^3
#
#
#
# Elastic Constant Matrix: (Units=GPa)
#
#
# Indices 1 2 3 4 5 6 
#
# 1 52.2624 15.0226 7.2376 0.0000 0.0000 0.0000
# 2 15.0226 52.2624 7.2376 0.0000 0.0000 0.0000
# 3 7.2376 7.2376 108.7158 0.0000 0.0000 0.0000
# 4 0.0000 0.0000 0.0000 17.5903 0.0000 0.0000
# 5 0.0000 0.0000 0.0000 0.0000 17.5903 0.0000
# 6 0.0000 0.0000 0.0000 0.0000 0.0000 18.6199
#
#
#
# Elastic Compliance Matrix: (Units=1/GPa)
#
#
# Indices 1 2 3 4 5 6 
#
# 1 0.020966 -0.005887 -0.001004 0.000000 0.000000 0.000000
# 2 -0.005887 0.020966 -0.001004 0.000000 0.000000 0.000000
# 3 -0.001004 -0.001004 0.009332 0.000000 0.000000 0.000000
# 4 0.000000 0.000000 0.000000 0.056849 0.000000 0.000000
# 5 0.000000 0.000000 0.000000 0.000000 0.056849 0.000000
# 6 0.000000 0.000000 0.000000 0.000000 0.000000 0.053706
#
#
# Mechanical properties :
#
#
# Convention : Reuss Voigt Hill
#
# Bulk Modulus (GPa) = 28.19052 30.24849 29.21950
# Shear Modulus (GPa) = 20.30191 23.00963 21.65577
#
# Velocity S-wave (km/s) = 3.19382 3.40014 3.29860
# Velocity P-wave (km/s) = 5.26922 5.53287 5.40266
#
# Compressibility (1/GPa) = 0.03547292
#
# Stress axis : x y z
#
# Youngs Moduli (GPa) = 47.69729 47.69729 107.15875
#
# Poissons Ratio (x) = 0.28082 0.10757
# Poissons Ratio (y) = 0.28082 0.10757
# Poissons Ratio (z) = 0.04788 0.04788
#
# Static dielectric constant tensor:
#      x y z
#    x 1.739170 0.000000 0.000000 
#    y 0.000000 1.739170 0.000000 
#    z 0.000000 0.000000 1.713650 
# 
# From -- ./inp_files/5407.got.cif
#   From: 2010.05.17/outbox.cif.g08.bks.cpg/sg192_3_cif.got.tgz:5407.got - 2010.05.20 12:28:01.
