data_PCOD9588674
_publ_section_title
;
Structure prediction by ZEFSAII (Michael W. Deem and Ramdas Pophale) SiO2 
 PCOD9588674
Probable space group: P 6/M C C
;
_chemical_formula_sum "Si O2"
_cell_formula_units_Z 192
_cell_length_a 30.747117
_cell_length_b 30.747117
_cell_length_c 14.348675
_cell_angle_alpha 90.000000
_cell_angle_beta 90.000000
_cell_angle_gamma 120.000000
_cell_volume 11747.656287
_symmetry_space_group_name_H-M "P 6/M C C"
_symmetry_group_IT_number 192
_symmetry_cell_setting 'hexagonal'
loop_
_space_group_symop_operation_xyz
x,y,z
x-y,x,z
-y,x-y,z
-x,-y,z
-x+y,-x,z
y,-x+y,z
x-y,-y,1/2-z
-x,-x+y,1/2-z
y,x,1/2-z
-y,-x,1/2-z
-x+y,y,1/2-z
x,x-y,1/2-z
-x,-y,-z
-x+y,-x,-z
y,-x+y,-z
x,y,-z
x-y,x,-z
-y,x-y,-z
-x+y,y,1/2+z
x,x-y,1/2+z
-y,-x,1/2+z
y,x,1/2+z
x-y,-y,1/2+z
-x,-x+y,1/2+z
loop_
_atom_site_type_symbol
_atom_site_label
_atom_site_fract_x
_atom_site_fract_y
_atom_site_fract_z
Si Si1 0.657602 0.577871 0.606855
Si Si2 0.875208 0.777922 0.644383
Si Si3 0.044993 0.111565 0.390323
Si Si4 0.765427 0.747256 0.392665
Si Si5 0.918899 0.267222 0.738904
Si Si6 0.519496 0.939176 0.241712
Si Si7 0.603428 0.645341 0.607137
Si Si8 0.897821 0.696490 0.397966
O O1 0.661616 0.565479 0.500000
O O2 0.710199 0.608180 0.661412
O O3 0.618976 0.533198 0.673107
O O4 0.632509 0.613721 0.606179
O O5 0.885633 0.771265 0.750000
O O6 0.924737 0.828762 0.616398
O O7 0.825181 0.780663 0.625497
O O8 0.870161 0.728615 0.597968
O O9 0.081272 0.092261 0.351135
O O10 0.038843 0.101116 0.500000
O O11 0.757556 0.728718 0.500000
O O12 0.745997 0.701642 0.319722
O O13 0.736050 0.778178 0.384421
O O14 0.944805 0.311009 0.817386
O O15 0.883489 0.220831 0.805753
O O16 0.461328 0.922656 0.250000
O O17 0.546879 0.934216 0.148787
O O18 0.549322 0.000000 0.250000
O O19 0.603397 0.660818 0.500000
O O20 0.892068 0.672304 0.500000
#
# Coordination Sequence:
#
# PCOD9588674 Si02
#       8
#    24  24  24  24  24  24  24  24
#     4   9  16  25  38  56  79 106 134 167 203 233
#     4  12  24  37  51  68  91 110 125 155 195 240
#     4  10  21  38  58  76  92 109 129 152 182 230
#     4  11  22  35  51  67  84 106 129 156 194 243
#     4  11  19  30  45  63  82 100 130 164 196 237
#     4   8  14  23  34  51  77 108 142 174 199 229
#     4   9  16  25  38  56  79 106 134 167 203 233
#     4  11  22  35  51  67  84 106 129 156 194 243
#
# _framework density 16.343686000000002
#
# number of rings (size 3 to 8) (size 9 to 14) (size 15 to 20)
#    0.000    1.875    1.250    5.750    0.000    6.500 
#    0.000    2.500    0.000    0.750    0.000    0.000 
#    0.000    0.000    0.000    0.000    0.000    0.000 
#
# Total GULP energy -1070093.756301 kJ/mol
# GULP energy per Si atom -5573.404981 kJ/mol
# Density = 1.630649 g / cm^3
# Si number density = 16.343686 Si / 1000 Ang^3
#
#
#
# Elastic Constant Matrix: (Units=GPa)
#
#
# Indices 1 2 3 4 5 6 
#
# 1 36.5625 1.6195 7.3699 0.0000 0.0000 0.0000
# 2 1.6195 36.5625 7.3699 0.0000 0.0000 0.0000
# 3 7.3699 7.3699 123.6218 0.0000 0.0000 0.0000
# 4 0.0000 0.0000 0.0000 14.7720 0.0000 0.0000
# 5 0.0000 0.0000 0.0000 0.0000 14.7720 0.0000
# 6 0.0000 0.0000 0.0000 0.0000 0.0000 17.4715
#
#
#
# Elastic Compliance Matrix: (Units=1/GPa)
#
#
# Indices 1 2 3 4 5 6 
#
# 1 0.027713 -0.000905 -0.001598 0.000000 0.000000 0.000000
# 2 -0.000905 0.027713 -0.001598 0.000000 0.000000 0.000000
# 3 -0.001598 -0.001598 0.008280 0.000000 0.000000 0.000000
# 4 0.000000 0.000000 0.000000 0.067696 0.000000 0.000000
# 5 0.000000 0.000000 0.000000 0.000000 0.067696 0.000000
# 6 0.000000 0.000000 0.000000 0.000000 0.000000 0.057236
#
#
# Mechanical properties :
#
#
# Convention : Reuss Voigt Hill
#
# Bulk Modulus (GPa) = 18.01742 25.49612 21.75677
# Shear Modulus (GPa) = 17.66558 21.42894 19.54726
#
# Velocity S-wave (km/s) = 3.29124 3.62490 3.46209
# Velocity P-wave (km/s) = 5.04887 5.75793 5.41502
#
# Compressibility (1/GPa) = 0.05550183
#
# Stress axis : x y z
#
# Youngs Moduli (GPa) = 36.08454 36.08454 120.77677
#
# Poissons Ratio (x) = 0.03267 0.19302
# Poissons Ratio (y) = 0.03267 0.19302
# Poissons Ratio (z) = 0.05767 0.05767
#
# Static dielectric constant tensor:
#      x y z
#    x 1.573860 0.000000 0.000000 
#    y 0.000000 1.573860 0.000000 
#    z 0.000000 0.000000 1.718400 
# 
# From -- ./inp_files/3580.got.cif
#   From: 2010.05.17/outbox.cif.g08.bks.cpg/sg192_2_cif.got.tgz:3580.got - 2010.05.20 12:28:01.
