data_PCOD9588228
_publ_section_title
;
Structure prediction by ZEFSAII (Michael W. Deem and Ramdas Pophale) SiO2 
 PCOD9588228
Probable space group: P 6/M M M
;
_chemical_formula_sum "Si O2"
_cell_formula_units_Z 168
_cell_length_a 22.462552
_cell_length_b 22.462552
_cell_length_c 22.828602
_cell_angle_alpha 90.000000
_cell_angle_beta 90.000000
_cell_angle_gamma 120.000000
_cell_volume 9975.349925
_symmetry_space_group_name_H-M "P 6/M M M"
_symmetry_group_IT_number 191
_symmetry_cell_setting 'hexagonal'
loop_
_space_group_symop_operation_xyz
x,y,z
x-y,x,z
-y,x-y,z
-x,-y,z
-x+y,-x,z
y,-x+y,z
x-y,-y,-z
-x,-x+y,-z
y,x,-z
-y,-x,-z
-x+y,y,-z
x,x-y,-z
-x,-y,-z
-x+y,-x,-z
y,-x+y,-z
x,y,-z
x-y,x,-z
-y,x-y,-z
-x+y,y,z
x,x-y,z
-y,-x,z
y,x,z
x-y,-y,z
-x,-x+y,z
loop_
_atom_site_type_symbol
_atom_site_label
_atom_site_fract_x
_atom_site_fract_y
_atom_site_fract_z
Si Si1 0.080842 0.293973 0.810942
Si Si2 0.846851 0.555674 0.771311
Si Si3 0.917282 0.526225 0.876411
Si Si4 0.078042 0.428241 0.429841
Si Si5 0.211150 0.287776 0.428730
Si Si6 0.471695 0.805466 0.651925
Si Si7 0.354544 0.082457 0.063889
O O1 0.133534 0.267068 0.797538
O O2 0.102541 0.361866 0.771811
O O3 0.096679 0.323926 0.877704
O O4 0.000000 0.240726 0.805799
O O5 0.772644 0.545288 0.790259
O O6 0.878117 0.524828 0.817260
O O7 0.835980 0.519676 0.709078
O O8 0.902738 0.451369 0.894044
O O9 0.897100 0.567133 0.922554
O O10 0.000000 0.572637 0.866890
O O11 0.082973 0.436049 0.500000
O O12 0.087225 0.362691 0.414787
O O13 0.137254 0.493691 0.398025
O O14 0.000000 0.406373 0.412914
O O15 0.207953 0.284454 0.500000
O O16 0.139615 0.279230 0.407059
O O17 0.231786 0.231786 0.408824
O O18 0.395562 0.791123 0.664621
O O19 0.470598 0.735299 0.635498
O O20 0.312877 0.000000 0.060880
O O21 0.347989 0.107864 0.000000
#
# Coordination Sequence:
#
# PCOD9588228 Si02
#       7
#    24  24  24  24  24  24  24
#     4   9  17  30  48  69  95 126 159 197 240 286
#     4   9  18  32  48  66  89 119 156 194 230 270
#     4   9  16  26  42  64  90 118 149 189 236 285
#     4   9  19  35  53  73  95 120 155 200 245 283
#     4   8  13  23  41  63  86 113 145 180 218 261
#     4  11  23  37  53  73  99 130 161 193 231 281
#     4   8  14  24  38  60  91 123 153 187 230 279
#
# _framework density 16.841515000000001
#
# number of rings (size 3 to 8) (size 9 to 14) (size 15 to 20)
#    0.000    3.000    0.000    3.143    0.000    3.143 
#    0.000    2.143    0.000    1.429    0.000    1.000 
#    0.000    0.000    0.000    4.429    0.000   18.571 
#
# Total GULP energy -935542.123563 kJ/mol
# GULP energy per Si atom -5568.703116 kJ/mol
# Density = 1.680318 g / cm^3
# Si number density = 16.841515 Si / 1000 Ang^3
#
#
#
# Elastic Constant Matrix: (Units=GPa)
#
#
# Indices 1 2 3 4 5 6 
#
# 1 83.5587 45.5216 23.8021 0.0000 0.0000 0.0000
# 2 45.5216 83.5587 23.8021 0.0000 0.0000 0.0000
# 3 23.8021 23.8021 30.1090 0.0000 0.0000 0.0000
# 4 0.0000 0.0000 0.0000 -3.2586 0.0000 0.0000
# 5 0.0000 0.0000 0.0000 0.0000 -3.2586 0.0000
# 6 0.0000 0.0000 0.0000 0.0000 0.0000 19.0186
#
#
#
# Elastic Compliance Matrix: (Units=1/GPa)
#
#
# Indices 1 2 3 4 5 6 
#
# 1 0.018613 -0.007677 -0.008645 0.000000 0.000000 0.000000
# 2 -0.007677 0.018613 -0.008645 0.000000 0.000000 0.000000
# 3 -0.008645 -0.008645 0.046880 0.000000 0.000000 0.000000
# 4 0.000000 0.000000 0.000000 -0.306879 0.000000 0.000000
# 5 0.000000 0.000000 0.000000 0.000000 -0.306879 0.000000
# 6 0.000000 0.000000 0.000000 0.000000 0.000000 0.052580
#
#
# Mechanical properties :
#
#
# Convention : Reuss Voigt Hill
#
# Bulk Modulus (GPa) = 29.26353 42.60867 35.93610
# Shear Modulus (GPa) = -12.02649 9.44031 -1.29309
#
# Velocity S-wave (km/s) = -2.67516 2.37014 -0.87719
# Velocity P-wave (km/s) = 2.80563 5.73104 4.51200
#
# Compressibility (1/GPa) = 0.03417222
#
# Stress axis : x y z
#
# Youngs Moduli (GPa) = 53.72686 53.72686 21.33092
#
# Poissons Ratio (x) = 0.41248 0.18440
# Poissons Ratio (y) = 0.41248 0.18440
# Poissons Ratio (z) = 0.46445 0.46445
#
# Static dielectric constant tensor:
#      x y z
#    x 1.568460 0.000000 0.000000 
#    y 0.000000 1.568460 0.000000 
#    z 0.000000 0.000000 1.589770 
# 
# From -- ./inp_files/9001.got.cif
#   From: 2010.05.17/outbox.cif.g08.bks.cpg/sg191_5_cif.got.tgz:9001.got - 2010.05.20 12:20:32.
