data_PCOD9588129
_publ_section_title
;
Structure prediction by ZEFSAII (Michael W. Deem and Ramdas Pophale) SiO2 
 PCOD9588129
Probable space group: P 6/M M M
;
_chemical_formula_sum "Si O2"
_cell_formula_units_Z 144
_cell_length_a 22.111734
_cell_length_b 22.111734
_cell_length_c 20.701805
_cell_angle_alpha 90.000000
_cell_angle_beta 90.000000
_cell_angle_gamma 120.000000
_cell_volume 8765.656494
_symmetry_space_group_name_H-M "P 6/M M M"
_symmetry_group_IT_number 191
_symmetry_cell_setting 'hexagonal'
loop_
_space_group_symop_operation_xyz
x,y,z
x-y,x,z
-y,x-y,z
-x,-y,z
-x+y,-x,z
y,-x+y,z
x-y,-y,-z
-x,-x+y,-z
y,x,-z
-y,-x,-z
-x+y,y,-z
x,x-y,-z
-x,-y,-z
-x+y,-x,-z
y,-x+y,-z
x,y,-z
x-y,x,-z
-y,x-y,-z
-x+y,y,z
x,x-y,z
-y,-x,z
y,x,z
x-y,-y,z
-x,-x+y,z
loop_
_atom_site_type_symbol
_atom_site_label
_atom_site_fract_x
_atom_site_fract_y
_atom_site_fract_z
Si Si1 0.577888 0.860797 0.927008
Si Si2 0.000000 0.719513 0.893208
Si Si3 0.860829 0.000000 0.740725
Si Si4 0.417936 0.280703 0.309733
Si Si5 0.666617 0.189597 0.190317
Si Si6 0.279201 0.000000 0.262834
Si Si7 0.471159 0.387332 0.575019
Si Si8 0.139990 0.000000 0.898131
O O1 0.590922 0.795461 0.918989
O O2 0.521806 0.850280 0.872908
O O3 0.650441 0.931391 0.916648
O O4 0.552516 0.858513 0.000000
O O5 0.000000 0.718244 0.815148
O O6 0.000000 0.789319 0.915782
O O7 0.860899 0.930450 0.719808
O O8 0.861071 0.000000 0.819406
O O9 0.791474 0.000000 0.719257
O O10 0.406966 0.203483 0.316096
O O11 0.473971 0.318683 0.252491
O O12 0.346413 0.277591 0.289261
O O13 0.447153 0.325045 0.374903
O O14 0.593691 0.187381 0.194733
O O15 0.730884 0.269117 0.186193
O O16 0.466373 0.366105 0.500000
O O17 0.550117 0.449884 0.587161
O O18 0.422528 0.422528 0.582926
O O19 0.140347 0.070174 0.919184
#
# Coordination Sequence:
#
# PCOD9588129 Si02
#       8
#    24  12  12  24  24  12  24  12
#     4  10  21  36  53  75 102 131 172 221 264 317
#     4  11  19  33  53  72 100 140 174 213 270 321
#     4   9  17  28  44  67  99 138 178 219 263 309
#     4  11  21  34  54  81 113 146 179 218 264 313
#     4  10  21  37  57  80 105 135 171 213 263 318
#     4  11  20  32  49  76 107 142 181 221 261 317
#     4   9  18  34  56  81 110 144 182 222 262 310
#     4   9  17  27  45  71 100 133 171 214 259 310
#
# _framework density 16.42775
#
# number of rings (size 3 to 8) (size 9 to 14) (size 15 to 20)
#    0.000    2.000    2.500    2.583    0.000    2.667 
#    0.000    1.250    0.000    2.333    0.000    0.000 
#    0.000    4.000    0.000    0.000    0.000    5.917 
#
# Total GULP energy -803759.762619 kJ/mol
# GULP energy per Si atom -5581.665018 kJ/mol
# Density = 1.639036 g / cm^3
# Si number density = 16.427750 Si / 1000 Ang^3
#
#
#
# Elastic Constant Matrix: (Units=GPa)
#
#
# Indices 1 2 3 4 5 6 
#
# 1 131.2877 83.4831 61.3099 0.0000 0.0000 0.0000
# 2 83.4831 131.2877 61.3099 0.0000 0.0000 0.0000
# 3 61.3099 61.3099 102.4862 0.0000 0.0000 0.0000
# 4 0.0000 0.0000 0.0000 8.3475 0.0000 0.0000
# 5 0.0000 0.0000 0.0000 0.0000 8.3475 0.0000
# 6 0.0000 0.0000 0.0000 0.0000 0.0000 23.9023
#
#
#
# Elastic Compliance Matrix: (Units=1/GPa)
#
#
# Indices 1 2 3 4 5 6 
#
# 1 0.013995 -0.006924 -0.004230 0.000000 0.000000 0.000000
# 2 -0.006924 0.013995 -0.004230 0.000000 0.000000 0.000000
# 3 -0.004230 -0.004230 0.014819 0.000000 0.000000 0.000000
# 4 0.000000 0.000000 0.000000 0.119796 0.000000 0.000000
# 5 0.000000 0.000000 0.000000 0.000000 0.119796 0.000000
# 6 0.000000 0.000000 0.000000 0.000000 0.000000 0.041837
#
#
# Mechanical properties :
#
#
# Convention : Reuss Voigt Hill
#
# Bulk Modulus (GPa) = 83.05407 86.36302 84.70855
# Shear Modulus (GPa) = 13.92685 18.71672 16.32179
#
# Velocity S-wave (km/s) = 2.91480 3.37907 3.15548
# Velocity P-wave (km/s) = 7.87369 8.24073 8.05930
#
# Compressibility (1/GPa) = 0.01204035
#
# Stress axis : x y z
#
# Youngs Moduli (GPa) = 71.45456 71.45456 67.48237
#
# Poissons Ratio (x) = 0.49472 0.28547
# Poissons Ratio (y) = 0.49472 0.28547
# Poissons Ratio (z) = 0.30227 0.30227
#
# Static dielectric constant tensor:
#      x y z
#    x 1.527390 0.000000 0.000000 
#    y 0.000000 1.527390 0.000000 
#    z 0.000000 0.000000 1.546490 
# 
# From -- ./inp_files/7709.got.cif
#   From: 2010.05.17/outbox.cif.g08.bks.cpg/sg191_4_cif.got.tgz:7709.got - 2010.05.20 12:20:32.
