data_PCOD9588682
_publ_section_title
;
Structure prediction by ZEFSAII (Michael W. Deem and Ramdas Pophale) SiO2 
 PCOD9588682
Probable space group: P 6/M C C
;
_chemical_formula_sum "Si O2"
_cell_formula_units_Z 156
_cell_length_a 20.185875
_cell_length_b 20.185875
_cell_length_c 24.314224
_cell_angle_alpha 90.000000
_cell_angle_beta 90.000000
_cell_angle_gamma 120.000000
_cell_volume 8579.978593
_symmetry_space_group_name_H-M "P 6/M C C"
_symmetry_group_IT_number 192
_symmetry_cell_setting 'hexagonal'
loop_
_space_group_symop_operation_xyz
x,y,z
x-y,x,z
-y,x-y,z
-x,-y,z
-x+y,-x,z
y,-x+y,z
x-y,-y,1/2-z
-x,-x+y,1/2-z
y,x,1/2-z
-y,-x,1/2-z
-x+y,y,1/2-z
x,x-y,1/2-z
-x,-y,-z
-x+y,-x,-z
y,-x+y,-z
x,y,-z
x-y,x,-z
-y,x-y,-z
-x+y,y,1/2+z
x,x-y,1/2+z
-y,-x,1/2+z
y,x,1/2+z
x-y,-y,1/2+z
-x,-x+y,1/2+z
loop_
_atom_site_type_symbol
_atom_site_label
_atom_site_fract_x
_atom_site_fract_y
_atom_site_fract_z
Si Si1 0.079410 0.182508 0.879130
Si Si2 0.520825 0.337203 0.254961
Si Si3 0.907356 0.450474 0.062254
Si Si4 0.346728 0.437895 0.651119
Si Si5 0.897200 0.818415 0.500000
Si Si6 0.170861 0.335397 0.682866
Si Si7 0.091811 0.664434 0.142218
O O1 0.125164 0.136382 0.875094
O O2 0.109720 0.247809 0.833729
O O3 0.096011 0.221289 0.940452
O O4 0.610813 0.389188 0.250000
O O5 0.499487 0.249744 0.250000
O O6 0.485366 0.364172 0.207056
O O7 0.488662 0.350830 0.310654
O O8 0.884360 0.500571 0.101639
O O9 0.888910 0.368880 0.087853
O O10 0.000000 0.500000 0.061121
O O11 0.878904 0.443280 0.000000
O O12 0.255248 0.384343 0.656171
O O13 0.385501 0.385069 0.649718
O O14 0.865584 0.876938 0.500000
O O15 0.170483 0.340966 0.750000
O O16 0.119257 0.365962 0.653121
#
# Coordination Sequence:
#
# PCOD9588682 Si02
#       7
#    24  24  24  24  12  24  24
#     4  10  21  38  60  84 116 164 219 273 321 371
#     4  12  22  37  59  90 117 149 190 240 293 345
#     4   9  20  39  61  87 113 143 188 240 290 341
#     4  11  21  36  61  85 116 156 196 242 291 354
#     4   8  15  32  56  80 104 138 200 264 316 364
#     4  12  24  39  55  87 130 161 199 251 317 363
#     4  11  21  36  61  85 116 156 196 242 291 354
#
# _framework density 18.181863
#
# number of rings (size 3 to 8) (size 9 to 14) (size 15 to 20)
#    0.000    1.385    4.615    1.769    0.000    3.692 
#    2.769    0.000    0.000    0.923    0.000    0.000 
#    0.000    0.000    0.000    0.000    0.000    0.000 
#
# Total GULP energy -868863.168499 kJ/mol
# GULP energy per Si atom -5569.635696 kJ/mol
# Density = 1.814048 g / cm^3
# Si number density = 18.181863 Si / 1000 Ang^3
#
#
#
# Elastic Constant Matrix: (Units=GPa)
#
#
# Indices 1 2 3 4 5 6 
#
# 1 60.5571 -4.1348 10.4697 0.0000 0.0000 0.0000
# 2 -4.1348 60.5571 10.4697 0.0000 0.0000 0.0000
# 3 10.4697 10.4697 90.4478 0.0000 0.0000 0.0000
# 4 0.0000 0.0000 0.0000 30.9565 0.0000 0.0000
# 5 0.0000 0.0000 0.0000 0.0000 30.9565 0.0000
# 6 0.0000 0.0000 0.0000 0.0000 0.0000 32.3460
#
#
#
# Elastic Compliance Matrix: (Units=1/GPa)
#
#
# Indices 1 2 3 4 5 6 
#
# 1 0.016988 0.001531 -0.002144 0.000000 0.000000 0.000000
# 2 0.001531 0.016988 -0.002144 0.000000 0.000000 0.000000
# 3 -0.002144 -0.002144 0.011552 0.000000 0.000000 0.000000
# 4 0.000000 0.000000 0.000000 0.032303 0.000000 0.000000
# 5 0.000000 0.000000 0.000000 0.000000 0.032303 0.000000
# 6 0.000000 0.000000 0.000000 0.000000 0.000000 0.030916
#
#
# Mechanical properties :
#
#
# Convention : Reuss Voigt Hill
#
# Bulk Modulus (GPa) = 24.99009 27.24123 26.11566
# Shear Modulus (GPa) = 31.26880 31.83564 31.55222
#
# Velocity S-wave (km/s) = 4.15152 4.18898 4.17029
# Velocity P-wave (km/s) = 6.06255 6.19774 6.13052
#
# Compressibility (1/GPa) = 0.04001587
#
# Stress axis : x y z
#
# Youngs Moduli (GPa) = 58.86350 58.86350 86.56236
#
# Poissons Ratio (x) = -0.09010 0.18556
# Poissons Ratio (y) = -0.09010 0.18556
# Poissons Ratio (z) = 0.12618 0.12618
#
# Static dielectric constant tensor:
#      x y z
#    x 1.628080 0.000000 0.000000 
#    y 0.000000 1.628080 0.000000 
#    z 0.000000 0.000000 1.648440 
# 
# From -- ./inp_files/5276.got.cif
#   From: 2010.05.17/outbox.cif.g08.bks.cpg/sg192_3_cif.got.tgz:5276.got - 2010.05.20 12:28:01.
