data_PCOD9588686
_publ_section_title
;
Structure prediction by ZEFSAII (Michael W. Deem and Ramdas Pophale) SiO2 
 PCOD9588686
Probable space group: P 6/M C C
;
_chemical_formula_sum "Si O2"
_cell_formula_units_Z 108
_cell_length_a 20.162697
_cell_length_b 20.162697
_cell_length_c 15.270228
_cell_angle_alpha 90.000000
_cell_angle_beta 90.000000
_cell_angle_gamma 120.000000
_cell_volume 5376.175045
_symmetry_space_group_name_H-M "P 6/M C C"
_symmetry_group_IT_number 192
_symmetry_cell_setting 'hexagonal'
loop_
_space_group_symop_operation_xyz
x,y,z
x-y,x,z
-y,x-y,z
-x,-y,z
-x+y,-x,z
y,-x+y,z
x-y,-y,1/2-z
-x,-x+y,1/2-z
y,x,1/2-z
-y,-x,1/2-z
-x+y,y,1/2-z
x,x-y,1/2-z
-x,-y,-z
-x+y,-x,-z
y,-x+y,-z
x,y,-z
x-y,x,-z
-y,x-y,-z
-x+y,y,1/2+z
x,x-y,1/2+z
-y,-x,1/2+z
y,x,1/2+z
x-y,-y,1/2+z
-x,-x+y,1/2+z
loop_
_atom_site_type_symbol
_atom_site_label
_atom_site_fract_x
_atom_site_fract_y
_atom_site_fract_z
Si Si1 0.860406 0.563089 0.155835
Si Si2 0.577619 0.856580 0.864434
Si Si3 0.852707 0.831211 0.500000
Si Si4 0.267154 0.997226 0.144003
Si Si5 0.454134 0.539780 0.100961
O O1 0.787056 0.559316 0.110374
O O2 0.857206 0.574141 0.259261
O O3 0.936736 0.640356 0.126846
O O4 0.864982 0.486922 0.144262
O O5 0.516955 0.880797 0.895036
O O6 0.664051 0.920541 0.886833
O O7 0.939412 0.848317 0.500000
O O8 0.807182 0.781969 0.414063
O O9 0.255948 0.000000 0.250000
O O10 0.500000 0.500000 0.139778
O O11 0.477804 0.557044 0.000000
#
# Coordination Sequence:
#
# PCOD9588686 Si02
#       5
#    24  24  12  24  24
#     4  10  21  38  62  89 119 160 208 260 314 370
#     4  10  21  38  62  89 119 160 208 260 314 370
#     4  12  27  44  66  95 132 172 206 250 308 375
#     4  10  22  42  68  98 126 159 211 266 317 365
#     4  11  23  37  57  89 125 161 203 253 314 382
#
# _framework density 20.088632
#
# number of rings (size 3 to 8) (size 9 to 14) (size 15 to 20)
#    0.000    1.556    2.222    2.111    3.111    4.444 
#    1.333    0.000    0.000    1.333    0.000    0.000 
#    0.000    0.000    0.000    0.000    0.000    0.000 
#
# Total GULP energy -603284.386187 kJ/mol
# GULP energy per Si atom -5585.966539 kJ/mol
# Density = 2.004291 g / cm^3
# Si number density = 20.088632 Si / 1000 Ang^3
#
#
#
# Elastic Constant Matrix: (Units=GPa)
#
#
# Indices 1 2 3 4 5 6 
#
# 1 83.6409 14.8933 6.7390 0.0000 0.0000 0.0000
# 2 14.8933 83.6409 6.7390 0.0000 0.0000 0.0000
# 3 6.7390 6.7390 55.2942 0.0000 0.0000 0.0000
# 4 0.0000 0.0000 0.0000 16.3273 0.0000 0.0000
# 5 0.0000 0.0000 0.0000 0.0000 16.3273 0.0000
# 6 0.0000 0.0000 0.0000 0.0000 0.0000 34.3738
#
#
#
# Elastic Compliance Matrix: (Units=1/GPa)
#
#
# Indices 1 2 3 4 5 6 
#
# 1 0.012433 -0.002113 -0.001258 0.000000 0.000000 0.000000
# 2 -0.002113 0.012433 -0.001258 0.000000 0.000000 0.000000
# 3 -0.001258 -0.001258 0.018392 0.000000 0.000000 0.000000
# 4 0.000000 0.000000 0.000000 0.061247 0.000000 0.000000
# 5 0.000000 0.000000 0.000000 0.000000 0.061247 0.000000
# 6 0.000000 0.000000 0.000000 0.000000 0.000000 0.029092
#
#
# Mechanical properties :
#
#
# Convention : Reuss Voigt Hill
#
# Bulk Modulus (GPa) = 29.41013 31.03541 30.22277
# Shear Modulus (GPa) = 23.20881 26.35265 24.78073
#
# Velocity S-wave (km/s) = 3.40269 3.62583 3.51603
# Velocity P-wave (km/s) = 5.48723 5.74558 5.61789
#
# Compressibility (1/GPa) = 0.03400189
#
# Stress axis : x y z
#
# Youngs Moduli (GPa) = 80.42863 80.42863 54.37237
#
# Poissons Ratio (x) = 0.16991 0.06839
# Poissons Ratio (y) = 0.16991 0.06839
# Poissons Ratio (z) = 0.10117 0.10117
#
# Static dielectric constant tensor:
#      x y z
#    x 1.696290 0.000000 0.000000 
#    y 0.000000 1.696290 0.000000 
#    z 0.000000 0.000000 1.745520 
# 
# From -- ./inp_files/4150.got.cif
#   From: 2010.05.17/outbox.cif.g08.bks.cpg/sg192_3_cif.got.tgz:4150.got - 2010.05.20 12:28:01.
