data_PCOD9588697
_publ_section_title
;
Structure prediction by ZEFSAII (Michael W. Deem and Ramdas Pophale) SiO2 
 PCOD9588697
Probable space group: P 6/M C C
;
_chemical_formula_sum "Si O2"
_cell_formula_units_Z 144
_cell_length_a 22.235109
_cell_length_b 22.235109
_cell_length_c 18.788702
_cell_angle_alpha 90.000000
_cell_angle_beta 90.000000
_cell_angle_gamma 120.000000
_cell_volume 8044.627431
_symmetry_space_group_name_H-M "P 6/M C C"
_symmetry_group_IT_number 192
_symmetry_cell_setting 'hexagonal'
loop_
_space_group_symop_operation_xyz
x,y,z
x-y,x,z
-y,x-y,z
-x,-y,z
-x+y,-x,z
y,-x+y,z
x-y,-y,1/2-z
-x,-x+y,1/2-z
y,x,1/2-z
-y,-x,1/2-z
-x+y,y,1/2-z
x,x-y,1/2-z
-x,-y,-z
-x+y,-x,-z
y,-x+y,-z
x,y,-z
x-y,x,-z
-y,x-y,-z
-x+y,y,1/2+z
x,x-y,1/2+z
-y,-x,1/2+z
y,x,1/2+z
x-y,-y,1/2+z
-x,-x+y,1/2+z
loop_
_atom_site_type_symbol
_atom_site_label
_atom_site_fract_x
_atom_site_fract_y
_atom_site_fract_z
Si Si1 0.516325 0.209916 0.584845
Si Si2 0.412161 0.331265 0.180069
Si Si3 0.194789 0.265983 0.293532
Si Si4 0.159798 0.044963 0.415849
Si Si5 0.814827 0.455761 0.584178
Si Si6 0.415732 0.461925 0.827735
O O1 0.500656 0.198152 0.500000
O O2 0.463105 0.145077 0.631640
O O3 0.517992 0.280374 0.606658
O O4 0.592212 0.218736 0.595275
O O5 0.342919 0.259816 0.196424
O O6 0.392734 0.385157 0.143511
O O7 0.449065 0.373879 0.252924
O O8 0.222177 0.222177 0.250000
O O9 0.134511 0.269023 0.250000
O O10 0.162495 0.225843 0.367228
O O11 0.132602 0.098852 0.400913
O O12 0.175936 0.049519 0.500000
O O13 0.826428 0.468155 0.500000
O O14 0.887574 0.494009 0.624071
O O15 0.500000 0.500000 0.824395
#
# Coordination Sequence:
#
# PCOD9588697 Si02
#       6
#    24  24  24  24  24  24
#     4  10  22  40  62  91 124 158 200 251 308 366
#     4  11  24  39  62  88 122 161 199 253 302 353
#     4  12  24  40  62  88 120 162 204 247 301 364
#     4  10  21  39  63  90 120 153 195 248 302 354
#     4  10  22  39  63  91 123 160 201 251 307 367
#     4  11  22  40  64  90 119 158 207 255 300 361
#
# _framework density 17.900145999999999
#
# number of rings (size 3 to 8) (size 9 to 14) (size 15 to 20)
#    0.000    1.333    5.000    1.500    2.333    3.667 
#    0.000    0.000    0.000    2.000    0.000    0.000 
#    0.000    0.000    0.000    0.000    0.000    0.000 
#
# Total GULP energy -803443.648161 kJ/mol
# GULP energy per Si atom -5579.469779 kJ/mol
# Density = 1.785940 g / cm^3
# Si number density = 17.900146 Si / 1000 Ang^3
#
#
#
# Elastic Constant Matrix: (Units=GPa)
#
#
# Indices 1 2 3 4 5 6 
#
# 1 140.5136 68.3838 60.8513 0.0000 0.0000 0.0000
# 2 68.3838 140.5136 60.8513 0.0000 0.0000 0.0000
# 3 60.8513 60.8513 57.1657 0.0000 0.0000 0.0000
# 4 0.0000 0.0000 0.0000 29.2298 0.0000 0.0000
# 5 0.0000 0.0000 0.0000 0.0000 29.2298 0.0000
# 6 0.0000 0.0000 0.0000 0.0000 0.0000 36.0649
#
#
#
# Elastic Compliance Matrix: (Units=1/GPa)
#
#
# Indices 1 2 3 4 5 6 
#
# 1 0.013233 -0.000631 -0.013415 0.000000 0.000000 0.000000
# 2 -0.000631 0.013233 -0.013415 0.000000 0.000000 0.000000
# 3 -0.013415 -0.013415 0.046053 0.000000 0.000000 0.000000
# 4 0.000000 0.000000 0.000000 0.034212 0.000000 0.000000
# 5 0.000000 0.000000 0.000000 0.000000 0.034212 0.000000
# 6 0.000000 0.000000 0.000000 0.000000 0.000000 0.027728
#
#
# Mechanical properties :
#
#
# Convention : Reuss Voigt Hill
#
# Bulk Modulus (GPa) = 56.82539 79.81844 68.32191
# Shear Modulus (GPa) = 21.79042 28.77867 25.28455
#
# Velocity S-wave (km/s) = 3.49281 4.01401 3.76245
# Velocity P-wave (km/s) = 6.93405 8.13454 7.55817
#
# Compressibility (1/GPa) = 0.01759777
#
# Stress axis : x y z
#
# Youngs Moduli (GPa) = 75.56707 75.56707 21.71404
#
# Poissons Ratio (x) = 0.04765 0.29130
# Poissons Ratio (y) = 0.04765 0.29130
# Poissons Ratio (z) = 1.01375 1.01375
#
# Static dielectric constant tensor:
#      x y z
#    x 1.605690 0.000000 0.000000 
#    y 0.000000 1.605690 0.000000 
#    z 0.000000 0.000000 1.613080 
# 
# From -- ./inp_files/5125.got.cif
#   From: 2010.05.17/outbox.cif.g08.bks.cpg/sg192_3_cif.got.tgz:5125.got - 2010.05.20 12:28:01.
