data_PCOD9588081
_publ_section_title
;
Structure prediction by ZEFSAII (Michael W. Deem and Ramdas Pophale) SiO2 
 PCOD9588081
Probable space group: P 6/M M M
;
_chemical_formula_sum "Si O2"
_cell_formula_units_Z 108
_cell_length_a 26.000343
_cell_length_b 26.000343
_cell_length_c 12.239090
_cell_angle_alpha 90.000000
_cell_angle_beta 90.000000
_cell_angle_gamma 120.000000
_cell_volume 7165.358344
_symmetry_space_group_name_H-M "P 6/M M M"
_symmetry_group_IT_number 191
_symmetry_cell_setting 'hexagonal'
loop_
_space_group_symop_operation_xyz
x,y,z
x-y,x,z
-y,x-y,z
-x,-y,z
-x+y,-x,z
y,-x+y,z
x-y,-y,-z
-x,-x+y,-z
y,x,-z
-y,-x,-z
-x+y,y,-z
x,x-y,-z
-x,-y,-z
-x+y,-x,-z
y,-x+y,-z
x,y,-z
x-y,x,-z
-y,x-y,-z
-x+y,y,z
x,x-y,z
-y,-x,z
y,x,z
x-y,-y,z
-x,-x+y,z
loop_
_atom_site_type_symbol
_atom_site_label
_atom_site_fract_x
_atom_site_fract_y
_atom_site_fract_z
Si Si1 0.250292 0.929321 0.277947
Si Si2 0.724464 0.862232 0.869282
Si Si3 0.927732 0.365003 0.764125
Si Si4 0.072436 0.536218 0.374433
Si Si5 0.072224 0.476079 0.000000
Si Si6 0.068422 0.931579 0.866999
Si Si7 0.187006 0.256634 0.500000
O O1 0.202582 0.896812 0.183426
O O2 0.299876 0.909695 0.277847
O O3 0.216459 0.919588 0.392663
O O4 0.284720 0.000000 0.257199
O O5 0.794168 0.897084 0.835927
O O6 0.721187 0.860594 0.000000
O O7 0.908329 0.402804 0.688800
O O8 0.000000 0.401910 0.763107
O O9 0.908836 0.366639 0.888651
O O10 0.091255 0.545628 0.500000
O O11 0.000000 0.500000 0.373066
O O12 0.090091 0.545046 0.000000
O O13 0.000000 0.439925 0.000000
O O14 0.000000 0.896857 0.830256
O O15 0.067580 0.932421 0.000000
O O16 0.206213 0.206213 0.500000
O O17 0.117199 0.234397 0.500000
#
# Coordination Sequence:
#
# PCOD9588081 Si02
#       7
#    24  12  24  12  12  12  12
#     4  10  21  34  50  69  91 122 161 201 244 299
#     4  11  22  34  47  66  95 125 155 197 250 305
#     4   9  17  27  41  63  89 121 156 187 220 262
#     4   9  16  25  39  61  91 120 148 185 218 241
#     4   9  14  24  40  59  88 124 159 186 213 249
#     4   9  17  30  48  67  87 112 145 191 253 325
#     4  10  20  38  58  72  89 119 163 213 263 317
#
# _framework density 15.072518000000001
#
# number of rings (size 3 to 8) (size 9 to 14) (size 15 to 20)
#    0.000    2.444    2.222    0.778    3.111    1.778 
#    0.000    0.000    0.000    0.111    0.000    0.000 
#    0.000    0.000    0.000    0.667    0.000    4.111 
#
# Total GULP energy -601801.143420 kJ/mol
# GULP energy per Si atom -5572.232809 kJ/mol
# Density = 1.503821 g / cm^3
# Si number density = 15.072518 Si / 1000 Ang^3
#
#
#
# Elastic Constant Matrix: (Units=GPa)
#
#
# Indices 1 2 3 4 5 6 
#
# 1 81.5665 49.5985 41.6146 0.0000 0.0000 0.0000
# 2 49.5985 81.5665 41.6146 0.0000 0.0000 0.0000
# 3 41.6146 41.6146 103.8192 0.0000 0.0000 0.0000
# 4 0.0000 0.0000 0.0000 13.8972 0.0000 0.0000
# 5 0.0000 0.0000 0.0000 0.0000 13.8972 0.0000
# 6 0.0000 0.0000 0.0000 0.0000 0.0000 15.9840
#
#
#
# Elastic Compliance Matrix: (Units=1/GPa)
#
#
# Indices 1 2 3 4 5 6 
#
# 1 0.020753 -0.010528 -0.004098 0.000000 0.000000 0.000000
# 2 -0.010528 0.020753 -0.004098 0.000000 0.000000 0.000000
# 3 -0.004098 -0.004098 0.012918 0.000000 0.000000 0.000000
# 4 0.000000 0.000000 0.000000 0.071957 0.000000 0.000000
# 5 0.000000 0.000000 0.000000 0.000000 0.071957 0.000000
# 6 0.000000 0.000000 0.000000 0.000000 0.000000 0.062563
#
#
# Mechanical properties :
#
#
# Convention : Reuss Voigt Hill
#
# Bulk Modulus (GPa) = 58.91612 59.17864 59.04738
# Shear Modulus (GPa) = 16.44692 17.69730 17.07211
#
# Velocity S-wave (km/s) = 3.30689 3.43030 3.36916
# Velocity P-wave (km/s) = 7.33171 7.41870 7.37533
#
# Compressibility (1/GPa) = 0.01697328
#
# Stress axis : x y z
#
# Youngs Moduli (GPa) = 48.18600 48.18600 77.41313
#
# Poissons Ratio (x) = 0.50732 0.31727
# Poissons Ratio (y) = 0.50732 0.31727
# Poissons Ratio (z) = 0.19749 0.19749
#
# Static dielectric constant tensor:
#      x y z
#    x 1.486200 0.000000 0.000000 
#    y 0.000000 1.486200 0.000000 
#    z 0.000000 0.000000 1.506760 
# 
# From -- ./inp_files/3040.got.cif
#   From: 2010.05.17/outbox.cif.g08.bks.cpg/sg191_2_cif.got.tgz:3040.got - 2010.05.20 12:20:32.
