data_PCOD9589327
_publ_section_title
;
Structure prediction by ZEFSAII (Michael W. Deem and Ramdas Pophale) SiO2 
 PCOD9589327
Probable space group: P 63/M C M
;
_chemical_formula_sum "Si O2"
_cell_formula_units_Z 108
_cell_length_a 28.904834
_cell_length_b 28.904834
_cell_length_c 10.595321
_cell_angle_alpha 90.000000
_cell_angle_beta 90.000000
_cell_angle_gamma 120.000000
_cell_volume 7666.298225
_symmetry_space_group_name_H-M "P 63/M C M"
_symmetry_group_IT_number 193
_symmetry_cell_setting 'hexagonal'
loop_
_space_group_symop_operation_xyz
x,y,z
x-y,x,1/2+z
-y,x-y,z
-x,-y,1/2+z
-x+y,-x,z
y,-x+y,1/2+z
x-y,-y,1/2-z
-x,-x+y,1/2-z
y,x,1/2-z
-y,-x,-z
-x+y,y,-z
x,x-y,-z
-x,-y,-z
-x+y,-x,1/2-z
y,-x+y,-z
x,y,1/2-z
x-y,x,-z
-y,x-y,1/2-z
-x+y,y,1/2+z
x,x-y,1/2+z
-y,-x,1/2+z
y,x,z
x-y,-y,z
-x,-x+y,z
loop_
_atom_site_type_symbol
_atom_site_label
_atom_site_fract_x
_atom_site_fract_y
_atom_site_fract_z
Si Si1 0.228232 0.533945 0.396514
Si Si2 0.151242 0.575621 0.500000
Si Si3 0.601366 0.939364 0.607418
Si Si4 0.832279 0.595378 0.891577
Si Si5 0.526628 0.587354 0.612141
O O1 0.275371 0.550742 0.500000
O O2 0.245966 0.549451 0.250000
O O3 0.189045 0.555422 0.439930
O O4 0.194710 0.469238 0.399293
O O5 0.109231 0.533196 0.599552
O O6 0.578236 0.931483 0.750000
O O7 0.617862 0.894868 0.590019
O O8 0.559003 0.932898 0.502247
O O9 0.648883 0.000000 0.599271
O O10 0.822067 0.607774 0.750000
O O11 0.806310 0.612619 0.000000
O O12 0.547706 0.612068 0.750000
O O13 0.537318 0.537318 0.604217
#
# Coordination Sequence:
#
# PCOD9589327 Si02
#       5
#    24  12  24  24  24
#     4  10  22  38  53  69  84 105 138 175 213 255
#     4  12  21  36  56  72  88 114 140 170 212 266
#     4   9  17  31  49  68  94 122 144 171 209 254
#     4   9  17  31  48  68  87 111 144 174 206 246
#     4  10  21  33  48  74 100 118 137 162 199 253
#
# _framework density 14.087634
#
# number of rings (size 3 to 8) (size 9 to 14) (size 15 to 20)
#    0.000    2.222    2.222    1.000    0.000    3.556 
#    0.667    2.222    0.000    0.000    0.000    0.000 
#    0.000    0.000    0.000    0.000    0.000    0.000 
#
# Total GULP energy -601642.112870 kJ/mol
# GULP energy per Si atom -5570.760304 kJ/mol
# Density = 1.405557 g / cm^3
# Si number density = 14.087634 Si / 1000 Ang^3
#
#
#
# Elastic Constant Matrix: (Units=GPa)
#
#
# Indices 1 2 3 4 5 6 
#
# 1 64.4817 28.8697 53.3078 0.0000 0.0000 0.0000
# 2 28.8697 64.4817 53.3078 0.0000 0.0000 0.0000
# 3 53.3078 53.3078 124.4295 0.0000 0.0000 0.0000
# 4 0.0000 0.0000 0.0000 660.3916 0.0000 0.0000
# 5 0.0000 0.0000 0.0000 0.0000 660.3916 0.0000
# 6 0.0000 0.0000 0.0000 0.0000 0.0000 17.8060
#
#
#
# Elastic Compliance Matrix: (Units=1/GPa)
#
#
# Indices 1 2 3 4 5 6 
#
# 1 0.024528 -0.003553 -0.008986 0.000000 0.000000 0.000000
# 2 -0.003553 0.024528 -0.008986 0.000000 0.000000 0.000000
# 3 -0.008986 -0.008986 0.015736 0.000000 0.000000 0.000000
# 4 0.000000 0.000000 0.000000 0.001514 0.000000 0.000000
# 5 0.000000 0.000000 0.000000 0.000000 0.001514 0.000000
# 6 0.000000 0.000000 0.000000 0.000000 0.000000 0.056161
#
#
# Mechanical properties :
#
#
# Convention : Reuss Voigt Hill
#
# Bulk Modulus (GPa) = 45.99363 58.26260 52.12812
# Shear Modulus (GPa) = 28.68970 275.57835 152.13403
#
# Velocity S-wave (km/s) = 4.51767 14.00150 10.40315
# Velocity P-wave (km/s) = 7.74155 17.40219 13.46788
#
# Compressibility (1/GPa) = 0.02174214
#
# Stress axis : x y z
#
# Youngs Moduli (GPa) = 40.77003 40.77003 63.54722
#
# Poissons Ratio (x) = 0.14484 0.57104
# Poissons Ratio (y) = 0.14484 0.57104
# Poissons Ratio (z) = 0.36637 0.36637
#
# Static dielectric constant tensor:
#      x y z
#    x 1.455950 0.000000 0.000000 
#    y 0.000000 1.455950 0.000000 
#    z 0.000000 0.000000 1.513510 
# 
# From -- ./inp_files/1343.got.cif
#   From: 2010.05.17/outbox.cif.g08.bks.cpg/sg193_1_cif.got.tgz:1343.got - 2010.05.20 12:33:02.
