data_PCOD9589724
_publ_section_title
;
Structure prediction by ZEFSAII (Michael W. Deem and Ramdas Pophale) SiO2 
 PCOD9589724
Probable space group: P 63/M M C
;
_chemical_formula_sum "Si O2"
_cell_formula_units_Z 168
_cell_length_a 19.318046
_cell_length_b 19.318046
_cell_length_c 28.403650
_cell_angle_alpha 90.000000
_cell_angle_beta 90.000000
_cell_angle_gamma 120.000000
_cell_volume 9179.756808
_symmetry_space_group_name_H-M "P 63/M M C"
_symmetry_group_IT_number 194
_symmetry_cell_setting 'hexagonal'
loop_
_space_group_symop_operation_xyz
x,y,z
x-y,x,1/2+z
-y,x-y,z
-x,-y,1/2+z
-x+y,-x,z
y,-x+y,1/2+z
x-y,-y,-z
-x,-x+y,-z
y,x,-z
-y,-x,1/2-z
-x+y,y,1/2-z
x,x-y,1/2-z
-x,-y,-z
-x+y,-x,1/2-z
y,-x+y,-z
x,y,1/2-z
x-y,x,-z
-y,x-y,1/2-z
-x+y,y,z
x,x-y,z
-y,-x,z
y,x,1/2+z
x-y,-y,1/2+z
-x,-x+y,1/2+z
loop_
_atom_site_type_symbol
_atom_site_label
_atom_site_fract_x
_atom_site_fract_y
_atom_site_fract_z
Si Si1 0.229155 0.034441 0.050753
Si Si2 0.001871 0.841923 0.151237
Si Si3 0.350082 0.953298 0.953713
Si Si4 0.666788 0.754041 0.806321
Si Si5 0.575498 0.582202 0.852249
Si Si6 0.821531 0.331502 0.987230
Si Si7 0.497404 0.668236 0.378783
O O1 0.254955 0.127478 0.052357
O O2 0.172197 0.995115 0.095319
O O3 0.305739 0.023179 0.055846
O O4 0.191178 0.000000 0.000000
O O5 0.930982 0.861964 0.159194
O O6 0.972385 0.756525 0.175422
O O7 0.086287 0.913714 0.167626
O O8 0.272854 0.727147 0.011400
O O9 0.401188 0.969206 0.907252
O O10 0.307949 0.863215 0.972567
O O11 0.665731 0.751906 0.750000
O O12 0.647344 0.823672 0.821668
O O13 0.608068 0.666252 0.826318
O O14 0.490690 0.509311 0.835491
O O15 0.639468 0.550877 0.850912
O O16 0.843295 0.421648 0.994625
O O17 0.845870 0.323166 0.933980
O O18 0.000000 0.399397 0.000000
O O19 0.502554 0.751277 0.364367
O O20 0.405808 0.594193 0.377071
#
# Coordination Sequence:
#
# PCOD9589724 Si02
#       7
#    24  24  24  24  24  24  24
#     4  10  20  33  50  77 114 156 197 235 275 325
#     4  10  20  36  59  87 119 154 195 238 282 335
#     4  11  20  32  48  75 111 151 185 228 279 333
#     4  10  23  44  65  85 113 148 185 234 299 357
#     4  11  22  37  59  88 114 145 191 238 282 338
#     4  10  19  30  46  68 101 144 188 228 270 323
#     4   9  18  32  51  79 116 156 193 227 268 322
#
# _framework density 18.301138999999999
#
# number of rings (size 3 to 8) (size 9 to 14) (size 15 to 20)
#    0.000    1.857    2.857    1.714    0.000    3.429 
#    0.000    0.000    0.000    3.429    0.000    0.000 
#    0.000    1.143    0.000    0.000    0.000    0.000 
#
# Total GULP energy -937168.199778 kJ/mol
# GULP energy per Si atom -5578.382142 kJ/mol
# Density = 1.825948 g / cm^3
# Si number density = 18.301139 Si / 1000 Ang^3
#
#
#
# Elastic Constant Matrix: (Units=GPa)
#
#
# Indices 1 2 3 4 5 6 
#
# 1 102.3042 63.0521 31.0504 0.0000 0.0000 0.0000
# 2 63.0521 102.3042 31.0504 0.0000 0.0000 0.0000
# 3 31.0504 31.0504 48.9780 0.0000 0.0000 0.0000
# 4 0.0000 0.0000 0.0000 15.0572 0.0000 0.0000
# 5 0.0000 0.0000 0.0000 0.0000 15.0572 0.0000
# 6 0.0000 0.0000 0.0000 0.0000 0.0000 19.6260
#
#
#
# Elastic Compliance Matrix: (Units=1/GPa)
#
#
# Indices 1 2 3 4 5 6 
#
# 1 0.016707 -0.008769 -0.005032 0.000000 0.000000 0.000000
# 2 -0.008769 0.016707 -0.005032 0.000000 0.000000 0.000000
# 3 -0.005032 -0.005032 0.026798 0.000000 0.000000 0.000000
# 4 0.000000 0.000000 0.000000 0.066413 0.000000 0.000000
# 5 0.000000 0.000000 0.000000 0.000000 0.066413 0.000000
# 6 0.000000 0.000000 0.000000 0.000000 0.000000 0.050953
#
#
# Mechanical properties :
#
#
# Convention : Reuss Voigt Hill
#
# Bulk Modulus (GPa) = 44.35723 55.98801 50.17262
# Shear Modulus (GPa) = 17.29072 18.51033 17.90053
#
# Velocity S-wave (km/s) = 3.07708 3.18375 3.13087
# Velocity P-wave (km/s) = 6.07574 6.64636 6.36744
#
# Compressibility (1/GPa) = 0.02254424
#
# Stress axis : x y z
#
# Youngs Moduli (GPa) = 59.85568 59.85568 37.31679
#
# Poissons Ratio (x) = 0.52490 0.18778
# Poissons Ratio (y) = 0.52490 0.18778
# Poissons Ratio (z) = 0.30119 0.30119
#
# Static dielectric constant tensor:
#      x y z
#    x 1.648610 0.000000 0.000000 
#    y 0.000000 1.648610 0.000000 
#    z 0.000000 0.000000 1.622600 
# 
# From -- ./inp_files/12235.got.cif
#   From: 2010.05.17/outbox.cif.g08.bks.cpg/sg194_7_cif.got.tgz:12235.got - 2010.05.20 12:39:09.
