data_PCOD9589764
_publ_section_title
;
Structure prediction by ZEFSAII (Michael W. Deem and Ramdas Pophale) SiO2 
 PCOD9589764
Probable space group: P 63/M M C
;
_chemical_formula_sum "Si O2"
_cell_formula_units_Z 132
_cell_length_a 17.151630
_cell_length_b 17.151630
_cell_length_c 29.521578
_cell_angle_alpha 90.000000
_cell_angle_beta 90.000000
_cell_angle_gamma 120.000000
_cell_volume 7521.093684
_symmetry_space_group_name_H-M "P 63/M M C"
_symmetry_group_IT_number 194
_symmetry_cell_setting 'hexagonal'
loop_
_space_group_symop_operation_xyz
x,y,z
x-y,x,1/2+z
-y,x-y,z
-x,-y,1/2+z
-x+y,-x,z
y,-x+y,1/2+z
x-y,-y,-z
-x,-x+y,-z
y,x,-z
-y,-x,1/2-z
-x+y,y,1/2-z
x,x-y,1/2-z
-x,-y,-z
-x+y,-x,1/2-z
y,-x+y,-z
x,y,1/2-z
x-y,x,-z
-y,x-y,1/2-z
-x+y,y,z
x,x-y,z
-y,-x,z
y,x,1/2+z
x-y,-y,1/2+z
-x,-x+y,1/2+z
loop_
_atom_site_type_symbol
_atom_site_label
_atom_site_fract_x
_atom_site_fract_y
_atom_site_fract_z
Si Si1 0.614184 0.042086 0.568544
Si Si2 0.363804 0.038623 0.835393
Si Si3 0.852718 0.520274 0.475890
Si Si4 0.000509 0.822855 0.803375
Si Si5 0.666997 0.152105 0.195379
Si Si6 0.850104 0.332440 0.750000
O O1 0.521206 0.042411 0.574313
O O2 0.667301 0.071317 0.615203
O O3 0.663683 0.107675 0.526299
O O4 0.583450 0.938442 0.555941
O O5 0.267254 0.030065 0.830506
O O6 0.425451 0.100616 0.794721
O O7 0.350782 0.939566 0.827396
O O8 0.761285 0.522569 0.467413
O O9 0.836873 0.418437 0.472182
O O10 0.004204 0.802593 0.750000
O O11 0.926810 0.853619 0.807461
O O12 0.097936 0.902065 0.816789
O O13 0.668377 0.140900 0.250000
O O14 0.584408 0.168816 0.185253
O O15 0.761796 0.238205 0.182384
O O16 0.748540 0.251461 0.750000
O O17 0.856255 0.428128 0.750000
#
# Coordination Sequence:
#
# PCOD9589764 Si02
#       6
#    24  24  24  24  24  12
#     4   9  20  36  53  78 110 140 171 218 274 320
#     4  12  21  35  57  78 106 144 189 228 265 320
#     4   9  18  35  58  82 106 134 172 216 269 328
#     4  10  20  35  53  76 104 136 176 226 276 318
#     4  10  19  31  47  71 103 141 182 226 271 318
#     4  12  25  40  55  76 108 148 192 234 271 308
#
# _framework density 17.550639
#
# number of rings (size 3 to 8) (size 9 to 14) (size 15 to 20)
#    0.000    1.818    1.818    4.455    0.000    5.818 
#    0.000    0.000    0.000    4.364    0.000    0.000 
#    0.000    0.000    0.000    9.273    0.000    0.000 
#
# Total GULP energy -737112.588546 kJ/mol
# GULP energy per Si atom -5584.186277 kJ/mol
# Density = 1.751069 g / cm^3
# Si number density = 17.550639 Si / 1000 Ang^3
#
#
#
# Elastic Constant Matrix: (Units=GPa)
#
#
# Indices 1 2 3 4 5 6 
#
# 1 52.1294 0.0261 8.4293 0.0000 0.0000 0.0000
# 2 0.0261 52.1294 8.4293 0.0000 0.0000 0.0000
# 3 8.4293 8.4293 73.5232 0.0000 0.0000 0.0000
# 4 0.0000 0.0000 0.0000 1.2328 0.0000 0.0000
# 5 0.0000 0.0000 0.0000 0.0000 1.2328 0.0000
# 6 0.0000 0.0000 0.0000 0.0000 0.0000 26.0516
#
#
#
# Elastic Compliance Matrix: (Units=1/GPa)
#
#
# Indices 1 2 3 4 5 6 
#
# 1 0.019552 0.000359 -0.002283 0.000000 0.000000 0.000000
# 2 0.000359 0.019552 -0.002283 0.000000 0.000000 0.000000
# 3 -0.002283 -0.002283 0.014125 0.000000 0.000000 0.000000
# 4 0.000000 0.000000 0.000000 0.811154 0.000000 0.000000
# 5 0.000000 0.000000 0.000000 0.000000 0.811154 0.000000
# 6 0.000000 0.000000 0.000000 0.000000 0.000000 0.038385
#
#
# Mechanical properties :
#
#
# Convention : Reuss Voigt Hill
#
# Bulk Modulus (GPa) = 22.31344 23.50571 22.90958
# Shear Modulus (GPa) = 2.87807 16.42993 9.65400
#
# Velocity S-wave (km/s) = 1.28196 3.06297 2.34789
# Velocity P-wave (km/s) = 3.86427 5.09227 4.52016
#
# Compressibility (1/GPa) = 0.04481604
#
# Stress axis : x y z
#
# Youngs Moduli (GPa) = 51.14571 51.14571 70.79851
#
# Poissons Ratio (x) = -0.01838 0.16162
# Poissons Ratio (y) = -0.01838 0.16162
# Poissons Ratio (z) = 0.11676 0.11676
#
# Static dielectric constant tensor:
#      x y z
#    x 1.587530 0.000000 0.000000 
#    y 0.000000 1.587530 0.000000 
#    z 0.000000 0.000000 1.616130 
# 
# From -- ./inp_files/10827.got.cif
#   From: 2010.05.17/outbox.cif.g08.bks.cpg/sg194_6_cif.got.tgz:10827.got - 2010.05.20 12:39:09.
