data_PCOD9589392
_publ_section_title
;
Structure prediction by ZEFSAII (Michael W. Deem and Ramdas Pophale) SiO2 
 PCOD9589392
Probable space group: P 63/M C M
;
_chemical_formula_sum "Si O2"
_cell_formula_units_Z 144
_cell_length_a 31.298079
_cell_length_b 31.298079
_cell_length_c 8.748224
_cell_angle_alpha 90.000000
_cell_angle_beta 90.000000
_cell_angle_gamma 120.000000
_cell_volume 7421.400877
_symmetry_space_group_name_H-M "P 63/M C M"
_symmetry_group_IT_number 193
_symmetry_cell_setting 'hexagonal'
loop_
_space_group_symop_operation_xyz
x,y,z
x-y,x,1/2+z
-y,x-y,z
-x,-y,1/2+z
-x+y,-x,z
y,-x+y,1/2+z
x-y,-y,1/2-z
-x,-x+y,1/2-z
y,x,1/2-z
-y,-x,-z
-x+y,y,-z
x,x-y,-z
-x,-y,-z
-x+y,-x,1/2-z
y,-x+y,-z
x,y,1/2-z
x-y,x,-z
-y,x-y,1/2-z
-x+y,y,1/2+z
x,x-y,1/2+z
-y,-x,1/2+z
y,x,z
x-y,-y,z
-x,-x+y,z
loop_
_atom_site_type_symbol
_atom_site_label
_atom_site_fract_x
_atom_site_fract_y
_atom_site_fract_z
Si Si1 0.695123 0.942136 0.078667
Si Si2 0.789616 0.847865 0.564338
Si Si3 0.425650 0.940651 0.923693
Si Si4 0.572580 0.334159 0.567210
Si Si5 0.320152 0.913222 0.068281
Si Si6 0.189170 0.472488 0.568270
O O1 0.677155 0.921026 0.250000
O O2 0.732658 0.924786 0.016405
O O3 0.732124 0.000000 0.096120
O O4 0.649803 0.939010 0.983772
O O5 0.803052 0.901526 0.500000
O O6 0.789473 0.849140 0.750000
O O7 0.825998 0.825998 0.520249
O O8 0.413069 0.921270 0.750000
O O9 0.459216 0.000000 0.916906
O O10 0.461343 0.922685 0.000000
O O11 0.375443 0.931233 0.005997
O O12 0.617333 0.382668 0.500000
O O13 0.576437 0.288219 0.500000
O O14 0.572725 0.332662 0.750000
O O15 0.521959 0.327968 0.503417
O O16 0.322234 0.912374 0.250000
O O17 0.287648 0.859886 0.994206
O O18 0.234759 0.469517 0.500000
O O19 0.191901 0.475613 0.750000
#
# Coordination Sequence:
#
# PCOD9589392 Si02
#       6
#    24  24  24  24  24  24
#     4   9  19  37  58  81 113 152 193 240 292 341
#     4   9  19  36  59  89 125 164 206 252 302 354
#     4  10  21  38  59  83 112 146 185 233 289 346
#     4  11  21  36  56  80 105 131 165 208 260 317
#     4  12  24  37  56  83 112 146 188 232 282 344
#     4  11  23  41  59  77 103 136 173 215 266 322
#
# _framework density 19.403345000000002
#
# number of rings (size 3 to 8) (size 9 to 14) (size 15 to 20)
#    0.000    1.667    0.000    7.667    0.000    5.667 
#    0.000    6.667    0.000    0.167    0.000    0.000 
#    0.000    0.000    0.000    0.000    0.000    0.000 
#
# Total GULP energy -802932.900901 kJ/mol
# GULP energy per Si atom -5575.922923 kJ/mol
# Density = 1.935918 g / cm^3
# Si number density = 19.403345 Si / 1000 Ang^3
#
#
#
# Elastic Constant Matrix: (Units=GPa)
#
#
# Indices 1 2 3 4 5 6 
#
# 1 91.0737 29.6194 40.0117 0.0000 0.0000 0.0000
# 2 29.6194 91.0737 40.0117 0.0000 0.0000 0.0000
# 3 40.0117 40.0117 151.4770 0.0000 0.0000 0.0000
# 4 0.0000 0.0000 0.0000 33.2565 0.0000 0.0000
# 5 0.0000 0.0000 0.0000 0.0000 33.2565 0.0000
# 6 0.0000 0.0000 0.0000 0.0000 0.0000 30.7272
#
#
#
# Elastic Compliance Matrix: (Units=1/GPa)
#
#
# Indices 1 2 3 4 5 6 
#
# 1 0.013158 -0.003114 -0.002653 0.000000 0.000000 0.000000
# 2 -0.003114 0.013158 -0.002653 0.000000 0.000000 0.000000
# 3 -0.002653 -0.002653 0.008003 0.000000 0.000000 0.000000
# 4 0.000000 0.000000 0.000000 0.030069 0.000000 0.000000
# 5 0.000000 0.000000 0.000000 0.000000 0.030069 0.000000
# 6 0.000000 0.000000 0.000000 0.000000 0.000000 0.032544
#
#
# Mechanical properties :
#
#
# Convention : Reuss Voigt Hill
#
# Bulk Modulus (GPa) = 57.20916 61.43444 59.32180
# Shear Modulus (GPa) = 33.40671 34.38013 33.89342
#
# Velocity S-wave (km/s) = 4.15384 4.21392 4.18399
# Velocity P-wave (km/s) = 7.24941 7.44357 7.34713
#
# Compressibility (1/GPa) = 0.01747972
#
# Stress axis : x y z
#
# Youngs Moduli (GPa) = 75.99678 75.99678 124.94799
#
# Poissons Ratio (x) = 0.23664 0.33152
# Poissons Ratio (y) = 0.23664 0.33152
# Poissons Ratio (z) = 0.20164 0.20164
#
# Static dielectric constant tensor:
#      x y z
#    x 1.647670 0.000000 0.000000 
#    y 0.000000 1.647670 0.000000 
#    z 0.000000 0.000000 1.667860 
# 
# From -- ./inp_files/1578.got.cif
#   From: 2010.05.17/outbox.cif.g08.bks.cpg/sg193_1_cif.got.tgz:1578.got - 2010.05.20 12:33:02.
