data_PCOD9589036
_publ_section_title
;
Structure prediction by ZEFSAII (Michael W. Deem and Ramdas Pophale) SiO2 
 PCOD9589036
Probable space group: P 63/M C M
;
_chemical_formula_sum "Si O2"
_cell_formula_units_Z 144
_cell_length_a 22.615696
_cell_length_b 22.615696
_cell_length_c 19.682168
_cell_angle_alpha 90.000000
_cell_angle_beta 90.000000
_cell_angle_gamma 120.000000
_cell_volume 8718.132829
_symmetry_space_group_name_H-M "P 63/M C M"
_symmetry_group_IT_number 193
_symmetry_cell_setting 'hexagonal'
loop_
_space_group_symop_operation_xyz
x,y,z
x-y,x,1/2+z
-y,x-y,z
-x,-y,1/2+z
-x+y,-x,z
y,-x+y,1/2+z
x-y,-y,1/2-z
-x,-x+y,1/2-z
y,x,1/2-z
-y,-x,-z
-x+y,y,-z
x,x-y,-z
-x,-y,-z
-x+y,-x,1/2-z
y,-x+y,-z
x,y,1/2-z
x-y,x,-z
-y,x-y,1/2-z
-x+y,y,1/2+z
x,x-y,1/2+z
-y,-x,1/2+z
y,x,z
x-y,-y,z
-x,-x+y,z
loop_
_atom_site_type_symbol
_atom_site_label
_atom_site_fract_x
_atom_site_fract_y
_atom_site_fract_z
Si Si1 0.375799 0.918116 0.326620
Si Si2 0.080661 0.853941 0.928373
Si Si3 0.279575 0.864030 0.580520
Si Si4 0.799216 0.080773 0.173229
Si Si5 0.130558 0.744022 0.929807
Si Si6 0.516021 0.082374 0.924008
O O1 0.363992 0.891134 0.250000
O O2 0.306977 0.895657 0.367586
O O3 0.423416 0.899551 0.371148
O O4 0.416184 0.000000 0.323521
O O5 0.130721 0.897496 0.867154
O O6 0.098513 0.793193 0.931319
O O7 0.000000 0.823159 0.918459
O O8 0.105767 0.894234 0.000000
O O9 0.249227 0.899423 0.629751
O O10 0.213044 0.788517 0.575696
O O11 0.291607 0.890693 0.502861
O O12 0.354317 0.877649 0.598040
O O13 0.811724 0.109974 0.250000
O O14 0.758986 0.000000 0.177808
O O15 0.463505 0.000000 0.921653
O O16 0.548740 0.097480 0.000000
#
# Coordination Sequence:
#
# PCOD9589036 Si02
#       6
#    24  24  24  24  24  24
#     4  10  21  35  52  79 113 145 179 221 268 323
#     4  11  21  34  56  82 109 142 181 225 273 329
#     4  10  19  33  54  80 107 137 179 221 268 324
#     4  10  21  36  54  78 109 142 177 224 278 329
#     4  10  19  34  53  80 108 140 176 222 271 323
#     4  10  19  31  53  80 108 142 177 215 266 325
#
# _framework density 16.517299000000001
#
# number of rings (size 3 to 8) (size 9 to 14) (size 15 to 20)
#    0.000    1.833    5.000    1.500    0.000    5.000 
#    0.000    1.667    0.000    3.667    4.333    0.000 
#    0.000    0.000    0.000    0.000    0.000    0.000 
#
# Total GULP energy -801834.642214 kJ/mol
# GULP energy per Si atom -5568.296126 kJ/mol
# Density = 1.647970 g / cm^3
# Si number density = 16.517299 Si / 1000 Ang^3
#
#
#
# Elastic Constant Matrix: (Units=GPa)
#
#
# Indices 1 2 3 4 5 6 
#
# 1 54.0407 14.4327 26.0268 0.0000 0.0000 0.0000
# 2 14.4327 54.0407 26.0268 0.0000 0.0000 0.0000
# 3 26.0268 26.0268 130.1043 0.0000 0.0000 0.0000
# 4 0.0000 0.0000 0.0000 15.3462 0.0000 0.0000
# 5 0.0000 0.0000 0.0000 0.0000 15.3462 0.0000
# 6 0.0000 0.0000 0.0000 0.0000 0.0000 19.8040
#
#
#
# Elastic Compliance Matrix: (Units=1/GPa)
#
#
# Indices 1 2 3 4 5 6 
#
# 1 0.021235 -0.004012 -0.003445 0.000000 0.000000 0.000000
# 2 -0.004012 0.021235 -0.003445 0.000000 0.000000 0.000000
# 3 -0.003445 -0.003445 0.009065 0.000000 0.000000 0.000000
# 4 0.000000 0.000000 0.000000 0.065163 0.000000 0.000000
# 5 0.000000 0.000000 0.000000 0.000000 0.065163 0.000000
# 6 0.000000 0.000000 0.000000 0.000000 0.000000 0.050495
#
#
# Mechanical properties :
#
#
# Convention : Reuss Voigt Hill
#
# Bulk Modulus (GPa) = 33.63646 41.23982 37.43814
# Shear Modulus (GPa) = 18.93428 21.54593 20.24010
#
# Velocity S-wave (km/s) = 3.38942 3.61563 3.50435
# Velocity P-wave (km/s) = 5.97714 6.51554 6.25214
#
# Compressibility (1/GPa) = 0.02972964
#
# Stress axis : x y z
#
# Youngs Moduli (GPa) = 47.09111 47.09111 110.31871
#
# Poissons Ratio (x) = 0.18893 0.38010
# Poissons Ratio (y) = 0.18893 0.38010
# Poissons Ratio (z) = 0.16225 0.16225
#
# Static dielectric constant tensor:
#      x y z
#    x 1.563050 0.000000 0.000000 
#    y 0.000000 1.563050 0.000000 
#    z 0.000000 0.000000 1.614410 
# 
# From -- ./inp_files/6580.got.cif
#   From: 2010.05.17/outbox.cif.g08.bks.cpg/sg193_4_cif.got.tgz:6580.got - 2010.05.20 12:33:02.
