data_PCOD9589842
_publ_section_title
;
Structure prediction by ZEFSAII (Michael W. Deem and Ramdas Pophale) SiO2 
 PCOD9589842
Probable space group: P 63/M M C
;
_chemical_formula_sum "Si O2"
_cell_formula_units_Z 120
_cell_length_a 21.503300
_cell_length_b 21.503300
_cell_length_c 17.078617
_cell_angle_alpha 90.000000
_cell_angle_beta 90.000000
_cell_angle_gamma 120.000000
_cell_volume 6839.015041
_symmetry_space_group_name_H-M "P 63/M M C"
_symmetry_group_IT_number 194
_symmetry_cell_setting 'hexagonal'
loop_
_space_group_symop_operation_xyz
x,y,z
x-y,x,1/2+z
-y,x-y,z
-x,-y,1/2+z
-x+y,-x,z
y,-x+y,1/2+z
x-y,-y,-z
-x,-x+y,-z
y,x,-z
-y,-x,1/2-z
-x+y,y,1/2-z
x,x-y,1/2-z
-x,-y,-z
-x+y,-x,1/2-z
y,-x+y,-z
x,y,1/2-z
x-y,x,-z
-y,x-y,1/2-z
-x+y,y,z
x,x-y,z
-y,-x,z
y,x,1/2+z
x-y,-y,1/2+z
-x,-x+y,1/2+z
loop_
_atom_site_type_symbol
_atom_site_label
_atom_site_fract_x
_atom_site_fract_y
_atom_site_fract_z
Si Si1 0.857619 0.857653 0.345428
Si Si2 0.722742 0.017401 0.157084
Si Si3 0.149274 0.440439 0.595384
Si Si4 0.467370 0.532631 0.158883
Si Si5 0.347308 0.415754 0.443944
Si Si6 0.445766 0.891532 0.659709
O O1 0.858595 0.859046 0.250000
O O2 0.934024 0.868047 0.371183
O O3 0.793433 0.778843 0.367404
O O4 0.846861 0.923431 0.371658
O O5 0.712479 0.004623 0.250000
O O6 0.726439 0.092673 0.138064
O O7 0.654314 0.958905 0.109338
O O8 0.228773 0.457545 0.612573
O O9 0.130333 0.427684 0.503561
O O10 0.135108 0.504075 0.620894
O O11 0.456411 0.543590 0.250000
O O12 0.517047 0.604971 0.111267
O O13 0.510916 0.489085 0.157400
O O14 0.399069 0.399069 0.500000
O O15 0.434636 0.869272 0.750000
#
# Coordination Sequence:
#
# PCOD9589842 Si02
#       6
#    24  24  24  12  24  12
#     4   9  17  29  46  69  99 137 181 226 271 317
#     4  10  19  32  53  81 110 143 182 231 283 329
#     4  11  23  37  55  80 115 153 185 221 275 339
#     4  11  18  32  60  88 108 134 176 232 284 326
#     4  10  19  32  52  79 111 141 174 217 267 335
#     4  11  21  35  59  87 112 144 184 230 280 330
#
# _framework density 17.546385999999998
#
# number of rings (size 3 to 8) (size 9 to 14) (size 15 to 20)
#    0.000    1.800    4.000    2.900    0.000    4.000 
#    0.600    0.000    0.000    1.800    0.000    0.000 
#    0.000   16.000    0.000    0.000    0.000    0.000 
#
# Total GULP energy -669666.330344 kJ/mol
# GULP energy per Si atom -5580.552753 kJ/mol
# Density = 1.750645 g / cm^3
# Si number density = 17.546386 Si / 1000 Ang^3
#
#
#
# Elastic Constant Matrix: (Units=GPa)
#
#
# Indices 1 2 3 4 5 6 
#
# 1 86.9284 66.6678 25.9197 0.0000 0.0000 0.0000
# 2 66.6678 86.9284 25.9197 0.0000 0.0000 0.0000
# 3 25.9197 25.9197 77.2157 0.0000 0.0000 0.0000
# 4 0.0000 0.0000 0.0000 115.7451 0.0000 0.0000
# 5 0.0000 0.0000 0.0000 0.0000 115.7451 0.0000
# 6 0.0000 0.0000 0.0000 0.0000 0.0000 10.1303
#
#
#
# Elastic Compliance Matrix: (Units=1/GPa)
#
#
# Indices 1 2 3 4 5 6 
#
# 1 0.028350 -0.021007 -0.002465 0.000000 0.000000 0.000000
# 2 -0.021007 0.028350 -0.002465 0.000000 0.000000 0.000000
# 3 -0.002465 -0.002465 0.014605 0.000000 0.000000 0.000000
# 4 0.000000 0.000000 0.000000 0.008640 0.000000 0.000000
# 5 0.000000 0.000000 0.000000 0.000000 0.008640 0.000000
# 6 0.000000 0.000000 0.000000 0.000000 0.000000 0.098713
#
#
# Mechanical properties :
#
#
# Convention : Reuss Voigt Hill
#
# Bulk Modulus (GPa) = 51.46289 54.23189 52.84739
# Shear Modulus (GPa) = 20.35436 57.16180 38.75808
#
# Velocity S-wave (km/s) = 3.40962 5.71387 4.70498
# Velocity P-wave (km/s) = 6.70030 8.63168 7.72657
#
# Compressibility (1/GPa) = 0.01943148
#
# Stress axis : x y z
#
# Youngs Moduli (GPa) = 35.27389 35.27389 68.46770
#
# Poissons Ratio (x) = 0.74100 0.16875
# Poissons Ratio (y) = 0.74100 0.16875
# Poissons Ratio (z) = 0.08694 0.08694
#
# Static dielectric constant tensor:
#      x y z
#    x 1.587410 0.000000 0.000000 
#    y 0.000000 1.587410 0.000000 
#    z 0.000000 0.000000 1.611000 
# 
# From -- ./inp_files/6729.got.cif
#   From: 2010.05.17/outbox.cif.g08.bks.cpg/sg194_4_cif.got.tgz:6729.got - 2010.05.20 12:39:09.
