data_PCOD9589415
_publ_section_title
;
Structure prediction by ZEFSAII (Michael W. Deem and Ramdas Pophale) SiO2 
 PCOD9589415
Probable space group: P 63/M C M
;
_chemical_formula_sum "Si O2"
_cell_formula_units_Z 102
_cell_length_a 20.810636
_cell_length_b 20.810636
_cell_length_c 13.773768
_cell_angle_alpha 90.000000
_cell_angle_beta 90.000000
_cell_angle_gamma 120.000000
_cell_volume 5165.996426
_symmetry_space_group_name_H-M "P 63/M C M"
_symmetry_group_IT_number 193
_symmetry_cell_setting 'hexagonal'
loop_
_space_group_symop_operation_xyz
x,y,z
x-y,x,1/2+z
-y,x-y,z
-x,-y,1/2+z
-x+y,-x,z
y,-x+y,1/2+z
x-y,-y,1/2-z
-x,-x+y,1/2-z
y,x,1/2-z
-y,-x,-z
-x+y,y,-z
x,x-y,-z
-x,-y,-z
-x+y,-x,1/2-z
y,-x+y,-z
x,y,1/2-z
x-y,x,-z
-y,x-y,1/2-z
-x+y,y,1/2+z
x,x-y,1/2+z
-y,-x,1/2+z
y,x,z
x-y,-y,z
-x,-x+y,z
loop_
_atom_site_type_symbol
_atom_site_label
_atom_site_fract_x
_atom_site_fract_y
_atom_site_fract_z
Si Si1 0.826971 0.359054 0.634343
Si Si2 0.503991 0.196290 0.134347
Si Si3 0.393174 0.086845 0.983481
Si Si4 0.919013 0.000000 0.750000
Si Si5 0.000000 0.200075 0.134916
Si Si6 0.853666 0.707332 0.000000
O O1 0.834711 0.361307 0.750000
O O2 0.755632 0.279663 0.608687
O O3 0.815253 0.427191 0.607467
O O4 0.895783 0.357854 0.585312
O O5 0.494085 0.188711 0.250000
O O6 0.431875 0.134296 0.079814
O O7 0.342924 0.000000 0.002094
O O8 0.344255 0.121236 0.942030
O O9 0.875443 0.000000 0.656412
O O10 0.929725 0.929725 0.750000
O O11 0.924572 0.173983 0.072590
O O12 0.000000 0.226157 0.250000
#
# Coordination Sequence:
#
# PCOD9589415 Si02
#       6
#    24  24  24   6  12  12
#     4  10  21  39  64  92 124 163 212 271 331 387
#     4  10  21  39  65  94 125 165 217 272 330 389
#     4  12  25  41  60  91 128 170 217 260 320 392
#     4   8  20  42  68 106 132 154 204 272 350 388
#     4  10  26  43  71 102 133 176 220 273 330 400
#     4  12  24  44  65  94 132 178 226 270 321 400
#
# _framework density 19.744496999999999
#
# number of rings (size 3 to 8) (size 9 to 14) (size 15 to 20)
#    0.471    0.941    3.529    1.176    1.647    6.588 
#    0.000    5.294    0.000    0.000    0.000    0.000 
#    0.000    0.000    0.000    0.000    0.000    0.000 
#
# Total GULP energy -568571.616693 kJ/mol
# GULP energy per Si atom -5574.231536 kJ/mol
# Density = 1.969956 g / cm^3
# Si number density = 19.744497 Si / 1000 Ang^3
#
#
#
# Elastic Constant Matrix: (Units=GPa)
#
#
# Indices 1 2 3 4 5 6 
#
# 1 135.0528 58.1146 25.4398 0.0000 0.0000 0.0000
# 2 58.1146 135.0528 25.4398 0.0000 0.0000 0.0000
# 3 25.4398 25.4398 77.9893 0.0000 0.0000 0.0000
# 4 0.0000 0.0000 0.0000 25.9860 0.0000 0.0000
# 5 0.0000 0.0000 0.0000 0.0000 25.9860 0.0000
# 6 0.0000 0.0000 0.0000 0.0000 0.0000 38.4691
#
#
#
# Elastic Compliance Matrix: (Units=1/GPa)
#
#
# Indices 1 2 3 4 5 6 
#
# 1 0.009330 -0.003667 -0.001847 0.000000 0.000000 0.000000
# 2 -0.003667 0.009330 -0.001847 0.000000 0.000000 0.000000
# 3 -0.001847 -0.001847 0.014028 0.000000 0.000000 0.000000
# 4 0.000000 0.000000 0.000000 0.038482 0.000000 0.000000
# 5 0.000000 0.000000 0.000000 0.000000 0.038482 0.000000
# 6 0.000000 0.000000 0.000000 0.000000 0.000000 0.025995
#
#
# Mechanical properties :
#
#
# Convention : Reuss Voigt Hill
#
# Bulk Modulus (GPa) = 55.66435 62.89815 59.28125
# Shear Modulus (GPa) = 31.97758 34.02827 33.00293
#
# Velocity S-wave (km/s) = 4.02875 4.15593 4.09283
# Velocity P-wave (km/s) = 7.06362 7.41311 7.24047
#
# Compressibility (1/GPa) = 0.01796482
#
# Stress axis : x y z
#
# Youngs Moduli (GPa) = 107.17593 107.17593 71.28851
#
# Poissons Ratio (x) = 0.39301 0.13170
# Poissons Ratio (y) = 0.39301 0.13170
# Poissons Ratio (z) = 0.19800 0.19800
#
# Static dielectric constant tensor:
#      x y z
#    x 1.691510 0.000000 0.000000 
#    y 0.000000 1.691510 0.000000 
#    z 0.000000 0.000000 1.764030 
# 
# From -- ./inp_files/3739.got.cif
#   From: 2010.05.17/outbox.cif.g08.bks.cpg/sg193_2_cif.got.tgz:3739.got - 2010.05.20 12:33:02.
