data_PCOD9589547
_publ_section_title
;
Structure prediction by ZEFSAII (Michael W. Deem and Ramdas Pophale) SiO2 
 PCOD9589547
Probable space group: P 63/M M C
;
_chemical_formula_sum "Si O2"
_cell_formula_units_Z 108
_cell_length_a 32.554915
_cell_length_b 32.554915
_cell_length_c 8.637078
_cell_angle_alpha 90.000000
_cell_angle_beta 90.000000
_cell_angle_gamma 120.000000
_cell_volume 7927.396943
_symmetry_space_group_name_H-M "P 63/M M C"
_symmetry_group_IT_number 194
_symmetry_cell_setting 'hexagonal'
loop_
_space_group_symop_operation_xyz
x,y,z
x-y,x,1/2+z
-y,x-y,z
-x,-y,1/2+z
-x+y,-x,z
y,-x+y,1/2+z
x-y,-y,-z
-x,-x+y,-z
y,x,-z
-y,-x,1/2-z
-x+y,y,1/2-z
x,x-y,1/2-z
-x,-y,-z
-x+y,-x,1/2-z
y,-x+y,-z
x,y,1/2-z
x-y,x,-z
-y,x-y,1/2-z
-x+y,y,z
x,x-y,z
-y,-x,z
y,x,1/2+z
x-y,-y,1/2+z
-x,-x+y,1/2+z
loop_
_atom_site_type_symbol
_atom_site_label
_atom_site_fract_x
_atom_site_fract_y
_atom_site_fract_z
Si Si1 0.388455 0.946107 0.064864
Si Si2 0.697333 0.053547 0.434556
Si Si3 0.698344 0.801672 0.435133
Si Si4 0.472937 0.945874 0.564851
Si Si5 0.145415 0.196395 0.934528
O O1 0.390364 0.946953 0.250000
O O2 0.335296 0.926541 0.005230
O O3 0.419528 0.924173 0.997967
O O4 0.414712 0.000000 0.000000
O O5 0.692106 0.050321 0.250000
O O6 0.751633 0.085867 0.483897
O O7 0.677002 0.000000 0.500000
O O8 0.695060 0.795510 0.250000
O O9 0.686830 0.843415 0.475336
O O10 0.752476 0.821404 0.487957
O O11 0.473643 0.947286 0.750000
O O12 0.500000 0.000000 0.500000
O O13 0.152673 0.201257 0.750000
O O14 0.091567 0.183134 0.967312
O O15 0.159472 0.159472 0.000000
#
# Coordination Sequence:
#
# PCOD9589547 Si02
#       5
#    24  24  24  12  24
#     4  10  17  26  38  54  75 100 131 164 199 233
#     4  11  20  30  43  59  80 104 132 166 203 240
#     4  10  20  33  47  62  81 105 132 163 199 239
#     4  10  16  24  36  52  74 100 130 162 198 232
#     4  10  20  33  49  68  87 106 128 155 190 234
#
# _framework density 13.62364
#
# number of rings (size 3 to 8) (size 9 to 14) (size 15 to 20)
#    0.000    1.778    0.000    9.667    0.000    2.667 
#    0.000    0.000    0.000    0.222    0.000    0.000 
#    0.000    0.000    0.000    0.000    0.000    0.000 
#
# Total GULP energy -602384.107432 kJ/mol
# GULP energy per Si atom -5577.630624 kJ/mol
# Density = 1.359263 g / cm^3
# Si number density = 13.623640 Si / 1000 Ang^3
#
#
#
# Elastic Constant Matrix: (Units=GPa)
#
#
# Indices 1 2 3 4 5 6 
#
# 1 80.8443 39.9837 41.7233 0.0000 0.0000 0.0000
# 2 39.9837 80.8443 41.7233 0.0000 0.0000 0.0000
# 3 41.7233 41.7233 120.6134 0.0000 0.0000 0.0000
# 4 0.0000 0.0000 0.0000 20.6412 0.0000 0.0000
# 5 0.0000 0.0000 0.0000 0.0000 20.6412 0.0000
# 6 0.0000 0.0000 0.0000 0.0000 0.0000 20.4303
#
#
#
# Elastic Compliance Matrix: (Units=1/GPa)
#
#
# Indices 1 2 3 4 5 6 
#
# 1 0.017674 -0.006800 -0.003762 0.000000 0.000000 0.000000
# 2 -0.006800 0.017674 -0.003762 0.000000 0.000000 0.000000
# 3 -0.003762 -0.003762 0.010893 0.000000 0.000000 0.000000
# 4 0.000000 0.000000 0.000000 0.048447 0.000000 0.000000
# 5 0.000000 0.000000 0.000000 0.000000 0.048447 0.000000
# 6 0.000000 0.000000 0.000000 0.000000 0.000000 0.048947
#
#
# Mechanical properties :
#
#
# Convention : Reuss Voigt Hill
#
# Bulk Modulus (GPa) = 56.83395 58.79583 57.81489
# Shear Modulus (GPa) = 22.06608 22.93401 22.50004
#
# Velocity S-wave (km/s) = 4.02890 4.10737 4.06833
# Velocity P-wave (km/s) = 7.96558 8.10832 8.03727
#
# Compressibility (1/GPa) = 0.01759512
#
# Stress axis : x y z
#
# Youngs Moduli (GPa) = 56.58103 56.58103 91.79838
#
# Poissons Ratio (x) = 0.38473 0.34531
# Poissons Ratio (y) = 0.38473 0.34531
# Poissons Ratio (z) = 0.21284 0.21284
#
# Static dielectric constant tensor:
#      x y z
#    x 1.455590 0.000000 0.000000 
#    y 0.000000 1.455590 0.000000 
#    z 0.000000 0.000000 1.453820 
# 
# From -- ./inp_files/1879.got.cif
#   From: 2010.05.17/outbox.cif.g08.bks.cpg/sg194_1_cif.got.tgz:1879.got - 2010.05.20 12:39:09.
