data_PCOD9589808
_publ_section_title
;
Structure prediction by ZEFSAII (Michael W. Deem and Ramdas Pophale) SiO2 
 PCOD9589808
Probable space group: P 63/M M C
;
_chemical_formula_sum "Si O2"
_cell_formula_units_Z 144
_cell_length_a 33.158123
_cell_length_b 33.158123
_cell_length_c 8.858437
_cell_angle_alpha 90.000000
_cell_angle_beta 90.000000
_cell_angle_gamma 120.000000
_cell_volume 8434.660546
_symmetry_space_group_name_H-M "P 63/M M C"
_symmetry_group_IT_number 194
_symmetry_cell_setting 'hexagonal'
loop_
_space_group_symop_operation_xyz
x,y,z
x-y,x,1/2+z
-y,x-y,z
-x,-y,1/2+z
-x+y,-x,z
y,-x+y,1/2+z
x-y,-y,-z
-x,-x+y,-z
y,x,-z
-y,-x,1/2-z
-x+y,y,1/2-z
x,x-y,1/2-z
-x,-y,-z
-x+y,-x,1/2-z
y,-x+y,-z
x,y,1/2-z
x-y,x,-z
-y,x-y,1/2-z
-x+y,y,z
x,x-y,z
-y,-x,z
y,x,1/2+z
x-y,-y,1/2+z
-x,-x+y,1/2+z
loop_
_atom_site_type_symbol
_atom_site_label
_atom_site_fract_x
_atom_site_fract_y
_atom_site_fract_z
Si Si1 0.525610 0.382585 0.068294
Si Si2 0.805808 0.706305 0.430269
Si Si3 0.807704 0.950676 0.069556
Si Si4 0.283434 0.903109 0.430887
Si Si5 0.716727 0.525306 0.931374
Si Si6 0.616207 0.567555 0.430743
O O1 0.526318 0.379946 0.250000
O O2 0.574797 0.425204 0.017200
O O3 0.483322 0.391816 0.028635
O O4 0.511642 0.332601 0.000724
O O5 0.801307 0.707800 0.250000
O O6 0.847899 0.695798 0.462124
O O7 0.822484 0.756862 0.500290
O O8 0.758210 0.666744 0.501962
O O9 0.805798 0.954082 0.250000
O O10 0.818255 0.909128 0.034075
O O11 0.844174 0.000000 0.000000
O O12 0.285325 0.908255 0.250000
O O13 0.274709 0.851450 0.468014
O O14 0.333454 0.938179 0.502172
O O15 0.713872 0.521214 0.750000
O O16 0.760086 0.520171 0.983617
O O17 0.578158 0.578158 0.500000
O O18 0.617026 0.571386 0.250000
#
# Coordination Sequence:
#
# PCOD9589808 Si02
#       6
#    24  24  24  24  24  24
#     4   9  19  35  53  74 100 129 163 205 251 299
#     4  10  20  33  50  74 104 136 170 207 246 291
#     4  10  21  37  57  80 105 134 168 206 249 296
#     4  10  19  32  50  72 101 136 172 210 250 293
#     4   9  18  32  51  76 103 130 162 202 249 300
#     4  10  20  34  50  70  98 131 169 211 253 297
#
# _framework density 17.072410999999999
#
# number of rings (size 3 to 8) (size 9 to 14) (size 15 to 20)
#    0.000    2.333    0.000    2.500    0.000    5.667 
#    0.000    3.333    0.000    0.500    0.000    0.000 
#    0.000    0.000    0.000    0.000    0.000    0.000 
#
# Total GULP energy -803777.410091 kJ/mol
# GULP energy per Si atom -5581.787570 kJ/mol
# Density = 1.703355 g / cm^3
# Si number density = 17.072411 Si / 1000 Ang^3
#
#
#
# Elastic Constant Matrix: (Units=GPa)
#
#
# Indices 1 2 3 4 5 6 
#
# 1 88.1222 61.4682 31.8654 0.0000 0.0000 0.0000
# 2 61.4682 88.1222 31.8654 0.0000 0.0000 0.0000
# 3 31.8654 31.8654 40.5668 0.0000 0.0000 0.0000
# 4 0.0000 0.0000 0.0000 28.7853 0.0000 0.0000
# 5 0.0000 0.0000 0.0000 0.0000 28.7853 0.0000
# 6 0.0000 0.0000 0.0000 0.0000 0.0000 13.3270
#
#
#
# Elastic Compliance Matrix: (Units=1/GPa)
#
#
# Indices 1 2 3 4 5 6 
#
# 1 0.023783 -0.013735 -0.007892 0.000000 0.000000 0.000000
# 2 -0.013735 0.023783 -0.007892 0.000000 0.000000 0.000000
# 3 -0.007892 -0.007892 0.037049 0.000000 0.000000 0.000000
# 4 0.000000 0.000000 0.000000 0.034740 0.000000 0.000000
# 5 0.000000 0.000000 0.000000 0.000000 0.034740 0.000000
# 6 0.000000 0.000000 0.000000 0.000000 0.000000 0.075036
#
#
# Mechanical properties :
#
#
# Convention : Reuss Voigt Hill
#
# Bulk Modulus (GPa) = 39.10032 51.91213 45.50623
# Shear Modulus (GPa) = 16.85237 20.28701 18.56969
#
# Velocity S-wave (km/s) = 3.14524 3.45090 3.30161
# Velocity P-wave (km/s) = 6.01186 6.80818 6.42237
#
# Compressibility (1/GPa) = 0.02557524
#
# Stress axis : x y z
#
# Youngs Moduli (GPa) = 42.04767 42.04767 26.99099
#
# Poissons Ratio (x) = 0.57754 0.21302
# Poissons Ratio (y) = 0.57754 0.21302
# Poissons Ratio (z) = 0.33185 0.33185
#
# Static dielectric constant tensor:
#      x y z
#    x 1.562300 0.000000 0.000000 
#    y 0.000000 1.562300 0.000000 
#    z 0.000000 0.000000 1.568810 
# 
# From -- ./inp_files/2075.got.cif
#   From: 2010.05.17/outbox.cif.g08.bks.cpg/sg194_2_cif.got.tgz:2075.got - 2010.05.20 12:39:09.
