data_PCOD9589801
_publ_section_title
;
Structure prediction by ZEFSAII (Michael W. Deem and Ramdas Pophale) SiO2 
 PCOD9589801
Probable space group: P 63/M M C
;
_chemical_formula_sum "Si O2"
_cell_formula_units_Z 156
_cell_length_a 22.210266
_cell_length_b 22.210266
_cell_length_c 20.870158
_cell_angle_alpha 90.000000
_cell_angle_beta 90.000000
_cell_angle_gamma 120.000000
_cell_volume 8915.873303
_symmetry_space_group_name_H-M "P 63/M M C"
_symmetry_group_IT_number 194
_symmetry_cell_setting 'hexagonal'
loop_
_space_group_symop_operation_xyz
x,y,z
x-y,x,1/2+z
-y,x-y,z
-x,-y,1/2+z
-x+y,-x,z
y,-x+y,1/2+z
x-y,-y,-z
-x,-x+y,-z
y,x,-z
-y,-x,1/2-z
-x+y,y,1/2-z
x,x-y,1/2-z
-x,-y,-z
-x+y,-x,1/2-z
y,-x+y,-z
x,y,1/2-z
x-y,x,-z
-y,x-y,1/2-z
-x+y,y,z
x,x-y,z
-y,-x,z
y,x,1/2+z
x-y,-y,1/2+z
-x,-x+y,1/2+z
loop_
_atom_site_type_symbol
_atom_site_label
_atom_site_fract_x
_atom_site_fract_y
_atom_site_fract_z
Si Si1 0.523632 0.190998 0.015694
Si Si2 0.630911 0.512907 0.618855
Si Si3 0.807714 0.331797 0.750000
Si Si4 0.238883 0.189252 0.439198
Si Si5 0.245276 0.051799 0.823217
Si Si6 0.360660 0.352564 0.678395
Si Si7 0.128114 0.394464 0.889862
O O1 0.592563 0.185125 0.026409
O O2 0.542139 0.271070 0.017036
O O3 0.462324 0.150151 0.067105
O O4 0.493220 0.159363 0.945593
O O5 0.555909 0.444092 0.621432
O O6 0.671324 0.514338 0.683772
O O7 0.623347 0.580536 0.624729
O O8 0.729340 0.270661 0.750000
O O9 0.810809 0.405405 0.750000
O O10 0.216000 0.216000 0.500000
O O11 0.221419 0.110710 0.447341
O O12 0.201523 0.197760 0.376304
O O13 0.322367 0.235417 0.429762
O O14 0.218473 0.033258 0.750000
O O15 0.256806 0.128403 0.836530
O O16 0.315258 0.046564 0.825041
O O17 0.390383 0.373083 0.750000
O O18 0.311169 0.384286 0.664401
O O19 0.199058 0.398116 0.866474
#
# Coordination Sequence:
#
# PCOD9589801 Si02
#       7
#    24  24  12  24  24  24  24
#     4  10  21  37  56  79 107 143 185 229 273 318
#     4  10  21  34  49  74 108 145 180 217 265 320
#     4  10  19  32  48  70 101 142 188 226 260 304
#     4  10  20  34  54  79 107 139 173 217 267 317
#     4   9  19  34  53  78 105 136 177 217 260 315
#     4  10  20  35  55  79 109 143 175 220 273 322
#     4   9  21  37  55  81 108 137 179 225 270 321
#
# _framework density 17.496883
#
# number of rings (size 3 to 8) (size 9 to 14) (size 15 to 20)
#    0.000    2.308    0.769    1.154    4.308    2.462 
#    0.000    6.154    0.000    2.769    0.000    0.000 
#    0.000    1.231    0.000    0.000    0.000    0.000 
#
# Total GULP energy -869553.394349 kJ/mol
# GULP energy per Si atom -5574.060220 kJ/mol
# Density = 1.745706 g / cm^3
# Si number density = 17.496883 Si / 1000 Ang^3
#
#
#
# Elastic Constant Matrix: (Units=GPa)
#
#
# Indices 1 2 3 4 5 6 
#
# 1 66.7325 26.7669 31.3466 0.0000 0.0000 0.0000
# 2 26.7669 66.7325 31.3466 0.0000 0.0000 0.0000
# 3 31.3466 31.3466 44.2338 0.0000 0.0000 0.0000
# 4 0.0000 0.0000 0.0000 24.0043 0.0000 0.0000
# 5 0.0000 0.0000 0.0000 0.0000 24.0043 0.0000
# 6 0.0000 0.0000 0.0000 0.0000 0.0000 19.9828
#
#
#
# Elastic Compliance Matrix: (Units=1/GPa)
#
#
# Indices 1 2 3 4 5 6 
#
# 1 0.022700 -0.002322 -0.014441 0.000000 0.000000 0.000000
# 2 -0.002322 0.022700 -0.014441 0.000000 0.000000 0.000000
# 3 -0.014441 -0.014441 0.043075 0.000000 0.000000 0.000000
# 4 0.000000 0.000000 0.000000 0.041659 0.000000 0.000000
# 5 0.000000 0.000000 0.000000 0.000000 0.041659 0.000000
# 6 0.000000 0.000000 0.000000 0.000000 0.000000 0.050043
#
#
# Mechanical properties :
#
#
# Convention : Reuss Voigt Hill
#
# Bulk Modulus (GPa) = 38.36325 39.62435 38.99380
# Shear Modulus (GPa) = 17.06869 19.48085 18.27477
#
# Velocity S-wave (km/s) = 3.12673 3.34037 3.23531
# Velocity P-wave (km/s) = 5.91681 6.12969 6.02419
#
# Compressibility (1/GPa) = 0.02606661
#
# Stress axis : x y z
#
# Youngs Moduli (GPa) = 44.05287 44.05287 23.21524
#
# Poissons Ratio (x) = 0.10227 0.33526
# Poissons Ratio (y) = 0.10227 0.33526
# Poissons Ratio (z) = 0.63618 0.63618
#
# Static dielectric constant tensor:
#      x y z
#    x 1.590990 0.000000 0.000000 
#    y 0.000000 1.590990 0.000000 
#    z 0.000000 0.000000 1.589640 
# 
# From -- ./inp_files/8365.got.cif
#   From: 2010.05.17/outbox.cif.g08.bks.cpg/sg194_5_cif.got.tgz:8365.got - 2010.05.20 12:39:09.
