data_PCOD9589835
_publ_section_title
;
Structure prediction by ZEFSAII (Michael W. Deem and Ramdas Pophale) SiO2 
 PCOD9589835
Probable space group: P 63/M M C
;
_chemical_formula_sum "Si O2"
_cell_formula_units_Z 156
_cell_length_a 22.123932
_cell_length_b 22.123932
_cell_length_c 20.186748
_cell_angle_alpha 90.000000
_cell_angle_beta 90.000000
_cell_angle_gamma 120.000000
_cell_volume 8557.001797
_symmetry_space_group_name_H-M "P 63/M M C"
_symmetry_group_IT_number 194
_symmetry_cell_setting 'hexagonal'
loop_
_space_group_symop_operation_xyz
x,y,z
x-y,x,1/2+z
-y,x-y,z
-x,-y,1/2+z
-x+y,-x,z
y,-x+y,1/2+z
x-y,-y,-z
-x,-x+y,-z
y,x,-z
-y,-x,1/2-z
-x+y,y,1/2-z
x,x-y,1/2-z
-x,-y,-z
-x+y,-x,1/2-z
y,-x+y,-z
x,y,1/2-z
x-y,x,-z
-y,x-y,1/2-z
-x+y,y,z
x,x-y,z
-y,-x,z
y,x,1/2+z
x-y,-y,1/2+z
-x,-x+y,1/2+z
loop_
_atom_site_type_symbol
_atom_site_label
_atom_site_fract_x
_atom_site_fract_y
_atom_site_fract_z
Si Si1 0.866314 0.001339 0.250000
Si Si2 0.807205 0.331822 0.898899
Si Si3 0.070662 0.665896 0.327506
Si Si4 0.552388 0.966596 0.573911
Si Si5 0.581095 0.721568 0.977209
Si Si6 0.997519 0.141173 0.398302
Si Si7 0.703169 0.923297 0.422307
O O1 0.841192 0.920596 0.250000
O O2 0.846297 0.015935 0.178499
O O3 0.950563 0.049438 0.250000
O O4 0.818496 0.409248 0.899146
O O5 0.726268 0.273733 0.892982
O O6 0.851637 0.320269 0.842251
O O7 0.835446 0.314512 0.966484
O O8 0.055839 0.659694 0.250000
O O9 0.061502 0.726604 0.362166
O O10 0.021785 0.596843 0.370028
O O11 0.472129 0.944258 0.579862
O O12 0.566743 0.902792 0.576648
O O13 0.576097 0.000000 0.500000
O O14 0.581957 0.790979 0.954058
O O15 0.654259 0.744752 0.014074
O O16 0.927287 0.072714 0.423160
O O17 0.063644 0.127288 0.399615
O O18 0.022324 0.215554 0.430873
O O19 0.698559 0.849280 0.408086
#
# Coordination Sequence:
#
# PCOD9589835 Si02
#       7
#    12  24  24  24  24  24  24
#     4   8  13  20  32  52  80 118 163 212 262 314
#     4  10  19  32  51  79 114 149 181 213 257 316
#     4  11  23  36  53  79 112 145 182 226 268 316
#     4  11  20  35  61  84 106 143 186 223 263 314
#     4   9  18  34  56  81 108 138 180 230 271 315
#     4   9  16  26  41  64  95 133 177 227 280 332
#     4   9  18  31  49  73 103 142 183 221 270 328
#
# _framework density 18.230685000000001
#
# number of rings (size 3 to 8) (size 9 to 14) (size 15 to 20)
#    0.000    2.308    3.077    2.692    1.077    3.692 
#    0.000    0.769    0.000    4.462    0.000    0.000 
#    0.000    0.000    0.000   25.231    0.000    4.154 
#
# Total GULP energy -870040.398133 kJ/mol
# GULP energy per Si atom -5577.182039 kJ/mol
# Density = 1.818919 g / cm^3
# Si number density = 18.230685 Si / 1000 Ang^3
#
#
#
# Elastic Constant Matrix: (Units=GPa)
#
#
# Indices 1 2 3 4 5 6 
#
# 1 105.1191 49.6181 13.2212 0.0000 0.0000 0.0000
# 2 49.6181 105.1191 13.2212 0.0000 0.0000 0.0000
# 3 13.2212 13.2212 42.1997 0.0000 0.0000 0.0000
# 4 0.0000 0.0000 0.0000 9.6179 0.0000 0.0000
# 5 0.0000 0.0000 0.0000 0.0000 9.6179 0.0000
# 6 0.0000 0.0000 0.0000 0.0000 0.0000 27.7505
#
#
#
# Elastic Compliance Matrix: (Units=1/GPa)
#
#
# Indices 1 2 3 4 5 6 
#
# 1 0.012423 -0.005595 -0.002139 0.000000 0.000000 0.000000
# 2 -0.005595 0.012423 -0.002139 0.000000 0.000000 0.000000
# 3 -0.002139 -0.002139 0.025037 0.000000 0.000000 0.000000
# 4 0.000000 0.000000 0.000000 0.103973 0.000000 0.000000
# 5 0.000000 0.000000 0.000000 0.000000 0.103973 0.000000
# 6 0.000000 0.000000 0.000000 0.000000 0.000000 0.036035
#
#
# Mechanical properties :
#
#
# Convention : Reuss Voigt Hill
#
# Bulk Modulus (GPa) = 33.18231 44.95102 39.06667
# Shear Modulus (GPa) = 15.44848 21.15575 18.30211
#
# Velocity S-wave (km/s) = 2.91415 3.41023 3.17190
# Velocity P-wave (km/s) = 5.43727 6.34165 5.90679
#
# Compressibility (1/GPa) = 0.03013654
#
# Stress axis : x y z
#
# Youngs Moduli (GPa) = 80.49641 80.49641 39.94036
#
# Poissons Ratio (x) = 0.45036 0.08544
# Poissons Ratio (y) = 0.45036 0.08544
# Poissons Ratio (z) = 0.17220 0.17220
#
# Static dielectric constant tensor:
#      x y z
#    x 1.646780 0.000000 0.000000 
#    y 0.000000 1.646780 0.000000 
#    z 0.000000 0.000000 1.634110 
# 
# From -- ./inp_files/8404.got.cif
#   From: 2010.05.17/outbox.cif.g08.bks.cpg/sg194_5_cif.got.tgz:8404.got - 2010.05.20 12:39:09.
