data_PCOD9589608
_publ_section_title
;
Structure prediction by ZEFSAII (Michael W. Deem and Ramdas Pophale) SiO2 
 PCOD9589608
Probable space group: P 63/M M C
;
_chemical_formula_sum "Si O2"
_cell_formula_units_Z 78
_cell_length_a 17.880065
_cell_length_b 17.880065
_cell_length_c 15.116766
_cell_angle_alpha 90.000000
_cell_angle_beta 90.000000
_cell_angle_gamma 120.000000
_cell_volume 4185.310748
_symmetry_space_group_name_H-M "P 63/M M C"
_symmetry_group_IT_number 194
_symmetry_cell_setting 'hexagonal'
loop_
_space_group_symop_operation_xyz
x,y,z
x-y,x,1/2+z
-y,x-y,z
-x,-y,1/2+z
-x+y,-x,z
y,-x+y,1/2+z
x-y,-y,-z
-x,-x+y,-z
y,x,-z
-y,-x,1/2-z
-x+y,y,1/2-z
x,x-y,1/2-z
-x,-y,-z
-x+y,-x,1/2-z
y,-x+y,-z
x,y,1/2-z
x-y,x,-z
-y,x-y,1/2-z
-x+y,y,z
x,x-y,z
-y,-x,z
y,x,1/2+z
x-y,-y,1/2+z
-x,-x+y,1/2+z
loop_
_atom_site_type_symbol
_atom_site_label
_atom_site_fract_x
_atom_site_fract_y
_atom_site_fract_z
Si Si1 0.905853 0.094148 0.351613
Si Si2 0.200740 0.799261 0.142309
Si Si3 0.100235 0.899766 0.358186
Si Si4 0.448854 0.066239 0.250000
Si Si5 0.820823 0.179178 0.250000
Si Si6 0.616206 0.057806 0.919162
O O1 0.923282 0.076719 0.250000
O O2 0.854406 0.145595 0.333556
O O3 0.001127 0.151822 0.389755
O O4 0.204914 0.795087 0.250000
O O5 0.150147 0.849854 0.117434
O O6 0.144334 0.704297 0.102174
O O7 0.101165 0.898836 0.250000
O O8 0.551837 0.103673 0.250000
O O9 0.415855 0.134137 0.250000
O O10 0.410157 0.003891 0.334088
O O11 0.538793 0.077585 0.936813
O O12 0.616943 0.000000 0.000000
#
# Coordination Sequence:
#
# PCOD9589608 Si02
#       6
#    12  12  12  12   6  24
#     4   8  15  22  41  70 113 142 182 229 279 341
#     4  11  20  34  65  92 120 160 217 269 309 382
#     4   9  15  26  43  78 114 148 190 241 285 340
#     4  10  20  37  58  81 115 156 202 261 322 375
#     4  10  18  28  50  80 102 146 200 238 284 378
#     4  10  22  40  61  88 125 164 203 258 332 391
#
# _framework density 18.636609
#
# number of rings (size 3 to 8) (size 9 to 14) (size 15 to 20)
#    0.462    1.846    1.538    2.154    0.000    2.462 
#    1.385    1.538    0.000    0.000    0.000    1.077 
#    0.000    0.000    0.000    0.000    0.000    0.000 
#
# Total GULP energy -434871.338740 kJ/mol
# GULP energy per Si atom -5575.273574 kJ/mol
# Density = 1.859419 g / cm^3
# Si number density = 18.636609 Si / 1000 Ang^3
#
#
#
# Elastic Constant Matrix: (Units=GPa)
#
#
# Indices 1 2 3 4 5 6 
#
# 1 128.7840 95.1895 19.7443 0.0000 0.0000 0.0000
# 2 95.1895 128.7840 19.7443 0.0000 0.0000 0.0000
# 3 19.7443 19.7443 79.2512 0.0000 0.0000 0.0000
# 4 0.0000 0.0000 0.0000 9.1501 0.0000 0.0000
# 5 0.0000 0.0000 0.0000 0.0000 9.1501 0.0000
# 6 0.0000 0.0000 0.0000 0.0000 0.0000 16.7973
#
#
#
# Elastic Compliance Matrix: (Units=1/GPa)
#
#
# Indices 1 2 3 4 5 6 
#
# 1 0.017218 -0.012548 -0.001163 0.000000 0.000000 0.000000
# 2 -0.012548 0.017218 -0.001163 0.000000 0.000000 0.000000
# 3 -0.001163 -0.001163 0.013198 0.000000 0.000000 0.000000
# 4 0.000000 0.000000 0.000000 0.109288 0.000000 0.000000
# 5 0.000000 0.000000 0.000000 0.000000 0.109288 0.000000
# 6 0.000000 0.000000 0.000000 0.000000 0.000000 0.059534
#
#
# Mechanical properties :
#
#
# Convention : Reuss Voigt Hill
#
# Bulk Modulus (GPa) = 55.91619 67.35282 61.63450
# Shear Modulus (GPa) = 13.83291 20.49558 17.16424
#
# Velocity S-wave (km/s) = 2.72737 3.31984 3.03808
# Velocity P-wave (km/s) = 6.32350 7.13538 6.74167
#
# Compressibility (1/GPa) = 0.01788391
#
# Stress axis : x y z
#
# Youngs Moduli (GPa) = 58.07758 58.07758 75.77011
#
# Poissons Ratio (x) = 0.72878 0.08815
# Poissons Ratio (y) = 0.72878 0.08815
# Poissons Ratio (z) = 0.06757 0.06757
#
# Static dielectric constant tensor:
#      x y z
#    x 1.635050 0.000000 0.000000 
#    y 0.000000 1.635050 0.000000 
#    z 0.000000 0.000000 1.614330 
# 
# From -- ./inp_files/6349.got.cif
#   From: 2010.05.17/outbox.cif.g08.bks.cpg/sg194_4_cif.got.tgz:6349.got - 2010.05.20 12:39:09.
