data_PCOD9589815
_publ_section_title
;
Structure prediction by ZEFSAII (Michael W. Deem and Ramdas Pophale) SiO2 
 PCOD9589815
Probable space group: P 63/M M C
;
_chemical_formula_sum "Si O2"
_cell_formula_units_Z 120
_cell_length_a 23.423295
_cell_length_b 23.423295
_cell_length_c 14.831106
_cell_angle_alpha 90.000000
_cell_angle_beta 90.000000
_cell_angle_gamma 120.000000
_cell_volume 7046.933070
_symmetry_space_group_name_H-M "P 63/M M C"
_symmetry_group_IT_number 194
_symmetry_cell_setting 'hexagonal'
loop_
_space_group_symop_operation_xyz
x,y,z
x-y,x,1/2+z
-y,x-y,z
-x,-y,1/2+z
-x+y,-x,z
y,-x+y,1/2+z
x-y,-y,-z
-x,-x+y,-z
y,x,-z
-y,-x,1/2-z
-x+y,y,1/2-z
x,x-y,1/2-z
-x,-y,-z
-x+y,-x,1/2-z
y,-x+y,-z
x,y,1/2-z
x-y,x,-z
-y,x-y,1/2-z
-x+y,y,z
x,x-y,z
-y,-x,z
y,x,1/2+z
x-y,-y,1/2+z
-x,-x+y,1/2+z
loop_
_atom_site_type_symbol
_atom_site_label
_atom_site_fract_x
_atom_site_fract_y
_atom_site_fract_z
Si Si1 0.566334 0.849477 0.578038
Si Si2 0.716603 0.923140 0.858736
Si Si3 0.577177 0.022279 0.750000
Si Si4 0.601339 0.662816 0.069208
Si Si5 0.277253 0.072700 0.640772
Si Si6 0.497495 0.634195 0.750000
O O1 0.563618 0.781809 0.556953
O O2 0.643123 0.900652 0.605916
O O3 0.549238 0.878801 0.491814
O O4 0.520622 0.841134 0.662056
O O5 0.711586 0.922030 0.750000
O O6 0.732375 0.866188 0.886075
O O7 0.772170 0.996892 0.884685
O O8 0.521445 0.042890 0.750000
O O9 0.620610 0.045947 0.659566
O O10 0.539351 0.942940 0.750000
O O11 0.655940 0.736677 0.098970
O O12 0.630973 0.630973 0.000000
O O13 0.282220 0.074673 0.750000
O O14 0.264879 0.132440 0.613795
O O15 0.421317 0.578684 0.750000
#
# Coordination Sequence:
#
# PCOD9589815 Si02
#       6
#    24  24  12  24  24  12
#     4  11  21  35  57  84 110 149 192 227 273 331
#     4   9  16  28  49  75 107 143 186 235 278 325
#     4  11  24  39  56  80 113 147 177 212 274 341
#     4  12  21  35  56  78 115 146 182 229 275 331
#     4  10  19  32  50  74 109 149 186 230 286 336
#     4  11  21  35  55  84 118 145 174 224 278 333
#
# _framework density 17.028684999999999
#
# number of rings (size 3 to 8) (size 9 to 14) (size 15 to 20)
#    0.000    1.400    6.000    0.900    0.000    1.200 
#    0.000    0.000    0.000    2.000    0.000    2.800 
#    0.000    0.800    0.000    0.400    0.000    0.400 
#
# Total GULP energy -669516.329751 kJ/mol
# GULP energy per Si atom -5579.302748 kJ/mol
# Density = 1.698993 g / cm^3
# Si number density = 17.028685 Si / 1000 Ang^3
#
#
#
# Elastic Constant Matrix: (Units=GPa)
#
#
# Indices 1 2 3 4 5 6 
#
# 1 64.3902 15.4904 19.0056 0.0000 0.0000 0.0000
# 2 15.4904 64.3902 19.0056 0.0000 0.0000 0.0000
# 3 19.0056 19.0056 90.5773 0.0000 0.0000 0.0000
# 4 0.0000 0.0000 0.0000 0.1067 0.0000 0.0000
# 5 0.0000 0.0000 0.0000 0.0000 0.1067 0.0000
# 6 0.0000 0.0000 0.0000 0.0000 0.0000 24.4499
#
#
#
# Elastic Compliance Matrix: (Units=1/GPa)
#
#
# Indices 1 2 3 4 5 6 
#
# 1 0.017179 -0.003271 -0.002918 0.000000 0.000000 0.000000
# 2 -0.003271 0.017179 -0.002918 0.000000 0.000000 0.000000
# 3 -0.002918 -0.002918 0.012265 0.000000 0.000000 0.000000
# 4 0.000000 0.000000 0.000000 9.371198 0.000001 0.000000
# 5 0.000000 0.000000 0.000000 0.000001 9.371197 0.000000
# 6 0.000000 0.000000 0.000000 0.000000 0.000000 0.040900
#
#
# Mechanical properties :
#
#
# Convention : Reuss Voigt Hill
#
# Bulk Modulus (GPa) = 35.20265 36.26231 35.73248
# Shear Modulus (GPa) = 0.26515 15.98974 8.12744
#
# Velocity S-wave (km/s) = 0.39502 3.06762 2.18704
# Velocity P-wave (km/s) = 4.57444 5.82135 5.23515
#
# Compressibility (1/GPa) = 0.02840695
#
# Stress axis : x y z
#
# Youngs Moduli (GPa) = 58.21189 58.21189 81.53343
#
# Poissons Ratio (x) = 0.19043 0.23793
# Poissons Ratio (y) = 0.19043 0.23793
# Poissons Ratio (z) = 0.16987 0.16987
#
# Static dielectric constant tensor:
#      x y z
#    x 1.573910 0.000000 0.000000 
#    y 0.000000 1.573910 0.000000 
#    z 0.000000 0.000000 1.618980 
# 
# From -- ./inp_files/5167.got.cif
#   From: 2010.05.17/outbox.cif.g08.bks.cpg/sg194_3_cif.got.tgz:5167.got - 2010.05.20 12:39:09.
