data_PCOD9589889
_publ_section_title
;
Structure prediction by ZEFSAII (Michael W. Deem and Ramdas Pophale) SiO2 
 PCOD9589889
Probable space group: P 63/M M C
;
_chemical_formula_sum "Si O2"
_cell_formula_units_Z 60
_cell_length_a 21.483647
_cell_length_b 21.483647
_cell_length_c 8.571459
_cell_angle_alpha 90.000000
_cell_angle_beta 90.000000
_cell_angle_gamma 120.000000
_cell_volume 3426.110765
_symmetry_space_group_name_H-M "P 63/M M C"
_symmetry_group_IT_number 194
_symmetry_cell_setting 'hexagonal'
loop_
_space_group_symop_operation_xyz
x,y,z
x-y,x,1/2+z
-y,x-y,z
-x,-y,1/2+z
-x+y,-x,z
y,-x+y,1/2+z
x-y,-y,-z
-x,-x+y,-z
y,x,-z
-y,-x,1/2-z
-x+y,y,1/2-z
x,x-y,1/2-z
-x,-y,-z
-x+y,-x,1/2-z
y,-x+y,-z
x,y,1/2-z
x-y,x,-z
-y,x-y,1/2-z
-x+y,y,z
x,x-y,z
-y,-x,z
y,x,1/2+z
x-y,-y,1/2+z
-x,-x+y,1/2+z
loop_
_atom_site_type_symbol
_atom_site_label
_atom_site_fract_x
_atom_site_fract_y
_atom_site_fract_z
Si Si1 0.162429 0.837572 0.064404
Si Si2 0.918372 0.595129 0.061880
Si Si3 0.081306 0.918695 0.936416
Si Si4 0.918607 0.459304 0.062412
O O1 0.158501 0.841500 0.250000
O O2 0.124270 0.755383 0.009204
O O3 0.122721 0.877280 0.990167
O O4 0.918435 0.599870 0.250000
O O5 0.887764 0.511274 0.016139
O O6 0.000000 0.638896 0.000000
O O7 0.079676 0.920325 0.750000
O O8 0.000000 0.877174 0.000000
O O9 0.921041 0.460521 0.250000
O O10 0.000000 0.500000 0.000000
#
# Coordination Sequence:
#
# PCOD9589889 Si02
#       4
#    12  24  12  12
#     4  12  24  37  53  79 111 146 183 227 276 324
#     4  10  19  34  54  79 107 138 173 215 263 318
#     4  12  25  43  62  82 108 145 190 239 289 344
#     4   8  16  30  52  77 102 129 162 200 246 300
#
# _framework density 17.512568999999999
#
# number of rings (size 3 to 8) (size 9 to 14) (size 15 to 20)
#    0.000    1.600    0.000    6.200    0.000    1.600 
#    0.000    0.000    0.000    0.800    0.000    2.800 
#    0.000    0.000    0.000    0.000    0.000    0.000 
#
# Total GULP energy -334830.731613 kJ/mol
# GULP energy per Si atom -5580.512194 kJ/mol
# Density = 1.747271 g / cm^3
# Si number density = 17.512569 Si / 1000 Ang^3
#
#
#
# Elastic Constant Matrix: (Units=GPa)
#
#
# Indices 1 2 3 4 5 6 
#
# 1 145.2356 97.9422 56.2016 0.0000 0.0000 0.0000
# 2 97.9422 145.2356 56.2016 0.0000 0.0000 0.0000
# 3 56.2016 56.2016 120.2924 0.0000 0.0000 0.0000
# 4 0.0000 0.0000 0.0000 18.1514 0.0000 0.0000
# 5 0.0000 0.0000 0.0000 0.0000 18.1514 0.0000
# 6 0.0000 0.0000 0.0000 0.0000 0.0000 23.6467
#
#
#
# Elastic Compliance Matrix: (Units=1/GPa)
#
#
# Indices 1 2 3 4 5 6 
#
# 1 0.013195 -0.007950 -0.002450 0.000000 0.000000 0.000000
# 2 -0.007950 0.013195 -0.002450 0.000000 0.000000 0.000000
# 3 -0.002450 -0.002450 0.010603 0.000000 0.000000 0.000000
# 4 0.000000 0.000000 0.000000 0.055092 0.000000 0.000000
# 5 0.000000 0.000000 0.000000 0.000000 0.055092 0.000000
# 6 0.000000 0.000000 0.000000 0.000000 0.000000 0.042289
#
#
# Mechanical properties :
#
#
# Convention : Reuss Voigt Hill
#
# Bulk Modulus (GPa) = 88.56790 92.38384 90.47587
# Shear Modulus (GPa) = 22.83829 25.35114 24.09472
#
# Velocity S-wave (km/s) = 3.61516 3.80886 3.71327
# Velocity P-wave (km/s) = 8.25285 8.49768 8.37616
#
# Compressibility (1/GPa) = 0.01129077
#
# Stress axis : x y z
#
# Youngs Moduli (GPa) = 75.78788 75.78788 94.31449
#
# Poissons Ratio (x) = 0.60250 0.23111
# Poissons Ratio (y) = 0.60250 0.23111
# Poissons Ratio (z) = 0.18571 0.18571
#
# Static dielectric constant tensor:
#      x y z
#    x 1.596660 0.000000 0.000000 
#    y 0.000000 1.596660 0.000000 
#    z 0.000000 0.000000 1.587540 
# 
# From -- ./inp_files/809.got.cif
#   From: 2010.05.17/outbox.cif.g08.bks.cpg/sg194_1_cif.got.tgz:809.got - 2010.05.20 12:39:09.
