data_PCOD9589591
_publ_section_title
;
Structure prediction by ZEFSAII (Michael W. Deem and Ramdas Pophale) SiO2 
 PCOD9589591
Probable space group: P 63/M M C
;
_chemical_formula_sum "Si O2"
_cell_formula_units_Z 96
_cell_length_a 30.398155
_cell_length_b 30.398155
_cell_length_c 7.892963
_cell_angle_alpha 90.000000
_cell_angle_beta 90.000000
_cell_angle_gamma 120.000000
_cell_volume 6316.334902
_symmetry_space_group_name_H-M "P 63/M M C"
_symmetry_group_IT_number 194
_symmetry_cell_setting 'hexagonal'
loop_
_space_group_symop_operation_xyz
x,y,z
x-y,x,1/2+z
-y,x-y,z
-x,-y,1/2+z
-x+y,-x,z
y,-x+y,1/2+z
x-y,-y,-z
-x,-x+y,-z
y,x,-z
-y,-x,1/2-z
-x+y,y,1/2-z
x,x-y,1/2-z
-x,-y,-z
-x+y,-x,1/2-z
y,-x+y,-z
x,y,1/2-z
x-y,x,-z
-y,x-y,1/2-z
-x+y,y,z
x,x-y,z
-y,-x,z
y,x,1/2+z
x-y,-y,1/2+z
-x,-x+y,1/2+z
loop_
_atom_site_type_symbol
_atom_site_label
_atom_site_fract_x
_atom_site_fract_y
_atom_site_fract_z
Si Si1 0.578249 0.884703 0.958212
Si Si2 0.245891 0.304262 0.951788
Si Si3 0.213942 0.786059 0.556716
Si Si4 0.157582 0.842419 0.056206
Si Si5 0.519660 0.578429 0.954223
O O1 0.578126 0.883874 0.750000
O O2 0.637218 0.920211 0.010412
O O3 0.559366 0.827283 0.018465
O O4 0.543493 0.907576 0.015747
O O5 0.243300 0.305459 0.750000
O O6 0.269278 0.269278 0.000000
O O7 0.189918 0.287684 0.021351
O O8 0.223315 0.776686 0.750000
O O9 0.183069 0.816932 0.556835
O O10 0.166242 0.833759 0.250000
O O11 0.517404 0.579775 0.750000
O O12 0.463634 0.536367 0.016138
O O13 0.556684 0.556684 0.000000
#
# Coordination Sequence:
#
# PCOD9589591 Si02
#       5
#    24  24  12  12  24
#     4   8  14  24  38  54  72  95 124 158 192 228
#     4  10  18  28  41  57  77 103 134 165 196 231
#     4   8  14  26  40  52  70  94 122 157 195 230
#     4  10  18  28  40  56  78 102 129 161 196 230
#     4   9  16  25  36  51  72  96 122 151 183 223
#
# _framework density 15.198687
#
# number of rings (size 3 to 8) (size 9 to 14) (size 15 to 20)
#    0.000    3.000    0.000    4.125    0.000    0.000 
#    0.000    5.000    0.000    0.000    0.000    0.000 
#    1.250    0.000    3.750    0.375    0.000    5.250 
#
# Total GULP energy -534419.658241 kJ/mol
# GULP energy per Si atom -5566.871440 kJ/mol
# Density = 1.516409 g / cm^3
# Si number density = 15.198687 Si / 1000 Ang^3
#
#
#
# Elastic Constant Matrix: (Units=GPa)
#
#
# Indices 1 2 3 4 5 6 
#
# 1 123.5365 71.8110 7.6993 0.0000 0.0000 0.0000
# 2 71.8110 123.5365 7.6993 0.0000 0.0000 0.0000
# 3 7.6993 7.6993 30.6770 0.0000 0.0000 0.0000
# 4 0.0000 0.0000 0.0000 8.8637 0.0000 0.0000
# 5 0.0000 0.0000 0.0000 0.0000 8.8637 0.0000
# 6 0.0000 0.0000 0.0000 0.0000 0.0000 25.8627
#
#
#
# Elastic Compliance Matrix: (Units=1/GPa)
#
#
# Indices 1 2 3 4 5 6 
#
# 1 0.012278 -0.007055 -0.001311 0.000000 0.000000 0.000000
# 2 -0.007055 0.012278 -0.001311 0.000000 0.000000 0.000000
# 3 -0.001311 -0.001311 0.033256 0.000000 0.000000 0.000000
# 4 0.000000 0.000000 0.000000 0.112819 0.000000 0.000000
# 5 0.000000 0.000000 0.000000 0.000000 0.112819 0.000000
# 6 0.000000 0.000000 0.000000 0.000000 0.000000 0.038666
#
#
# Mechanical properties :
#
#
# Convention : Reuss Voigt Hill
#
# Bulk Modulus (GPa) = 26.00269 50.24105 38.12187
# Shear Modulus (GPa) = 14.11281 21.42072 17.76677
#
# Velocity S-wave (km/s) = 3.05053 3.75824 3.42273
# Velocity P-wave (km/s) = 5.43629 7.20836 6.38411
#
# Compressibility (1/GPa) = 0.03845756
#
# Stress axis : x y z
#
# Youngs Moduli (GPa) = 81.44902 81.44902 30.07007
#
# Poissons Ratio (x) = 0.57464 0.03941
# Poissons Ratio (y) = 0.57464 0.03941
# Poissons Ratio (z) = 0.10676 0.10676
#
# Static dielectric constant tensor:
#      x y z
#    x 1.514400 0.000000 0.000000 
#    y 0.000000 1.514400 0.000000 
#    z 0.000000 0.000000 1.556160 
# 
# From -- ./inp_files/1760.got.cif
#   From: 2010.05.17/outbox.cif.g08.bks.cpg/sg194_1_cif.got.tgz:1760.got - 2010.05.20 12:39:09.
