data_PCOD9589972
_publ_section_title
;
Structure prediction by ZEFSAII (Michael W. Deem and Ramdas Pophale) SiO2 
 PCOD9589972
Probable space group: P 63/M M C
;
_chemical_formula_sum "Si O2"
_cell_formula_units_Z 144
_cell_length_a 30.307170
_cell_length_b 30.307170
_cell_length_c 10.256345
_cell_angle_alpha 90.000000
_cell_angle_beta 90.000000
_cell_angle_gamma 120.000000
_cell_volume 8158.569601
_symmetry_space_group_name_H-M "P 63/M M C"
_symmetry_group_IT_number 194
_symmetry_cell_setting 'hexagonal'
loop_
_space_group_symop_operation_xyz
x,y,z
x-y,x,1/2+z
-y,x-y,z
-x,-y,1/2+z
-x+y,-x,z
y,-x+y,1/2+z
x-y,-y,-z
-x,-x+y,-z
y,x,-z
-y,-x,1/2-z
-x+y,y,1/2-z
x,x-y,1/2-z
-x,-y,-z
-x+y,-x,1/2-z
y,-x+y,-z
x,y,1/2-z
x-y,x,-z
-y,x-y,1/2-z
-x+y,y,z
x,x-y,z
-y,-x,z
y,x,1/2+z
x-y,-y,1/2+z
-x,-x+y,1/2+z
loop_
_atom_site_type_symbol
_atom_site_label
_atom_site_fract_x
_atom_site_fract_y
_atom_site_fract_z
Si Si1 0.952627 0.526273 0.901568
Si Si2 0.048263 0.848206 0.403982
Si Si3 0.955732 0.700595 0.897501
Si Si4 0.487145 0.190975 0.396215
Si Si5 0.420045 0.304189 0.898631
Si Si6 0.665103 0.229675 0.892667
O O1 0.969664 0.536591 0.750000
O O2 0.930229 0.465115 0.920442
O O3 0.916202 0.550546 0.918463
O O4 0.000000 0.553865 0.000000
O O5 0.034656 0.847509 0.250000
O O6 0.096228 0.903773 0.433154
O O7 0.064872 0.804953 0.418017
O O8 0.000000 0.831037 0.500000
O O9 0.976443 0.710113 0.750000
O O10 0.917297 0.640782 0.908228
O O11 0.000000 0.715803 0.000000
O O12 0.484390 0.171307 0.250000
O O13 0.493041 0.246521 0.385466
O O14 0.439423 0.156950 0.487411
O O15 0.533614 0.196663 0.484449
O O16 0.431395 0.294816 0.750000
O O17 0.656576 0.203905 0.750000
O O18 0.623043 0.246086 0.905502
O O19 0.720581 0.279420 0.890272
#
# Coordination Sequence:
#
# PCOD9589972 Si02
#       6
#    24  24  24  24  24  24
#     4   9  18  32  49  71  99 128 161 203 249 298
#     4   9  18  33  53  79 111 144 178 218 263 310
#     4   9  18  32  51  76 104 134 171 215 261 306
#     4  10  22  37  49  66  95 127 159 198 244 293
#     4  10  20  33  51  73  96 129 171 211 255 307
#     4   9  17  31  52  74  93 115 147 189 238 295
#
# _framework density 17.650151999999999
#
# number of rings (size 3 to 8) (size 9 to 14) (size 15 to 20)
#    0.000    2.667    0.000    1.167    0.000    5.000 
#    0.000    3.333    0.000    1.167    0.000    0.000 
#    0.000    0.000    0.000    0.000    0.000    0.000 
#
# Total GULP energy -801629.063780 kJ/mol
# GULP energy per Si atom -5566.868498 kJ/mol
# Density = 1.760998 g / cm^3
# Si number density = 17.650152 Si / 1000 Ang^3
#
#
#
# Elastic Constant Matrix: (Units=GPa)
#
#
# Indices 1 2 3 4 5 6 
#
# 1 59.4478 25.5733 44.9330 0.0000 0.0000 0.0000
# 2 25.5733 59.4478 44.9330 0.0000 0.0000 0.0000
# 3 44.9330 44.9330 128.2620 0.0000 0.0000 0.0000
# 4 0.0000 0.0000 0.0000 65.4720 0.0000 0.0000
# 5 0.0000 0.0000 0.0000 0.0000 65.4720 0.0000
# 6 0.0000 0.0000 0.0000 0.0000 0.0000 16.9372
#
#
#
# Elastic Compliance Matrix: (Units=1/GPa)
#
#
# Indices 1 2 3 4 5 6 
#
# 1 0.024099 -0.005421 -0.006543 0.000000 0.000000 0.000000
# 2 -0.005421 0.024099 -0.006543 0.000000 0.000000 0.000000
# 3 -0.006543 -0.006543 0.012381 0.000000 0.000000 0.000000
# 4 0.000000 0.000000 0.000000 0.015274 0.000000 0.000000
# 5 0.000000 0.000000 0.000000 0.000000 0.015274 0.000000
# 6 0.000000 0.000000 0.000000 0.000000 0.000000 0.059041
#
#
# Mechanical properties :
#
#
# Convention : Reuss Voigt Hill
#
# Bulk Modulus (GPa) = 42.43804 53.11515 47.77659
# Shear Modulus (GPa) = 25.63587 38.35747 31.99667
#
# Velocity S-wave (km/s) = 3.81523 4.66683 4.26235
# Velocity P-wave (km/s) = 6.59577 7.69400 7.16596
#
# Compressibility (1/GPa) = 0.02356377
#
# Stress axis : x y z
#
# Youngs Moduli (GPa) = 41.49491 41.49491 80.76850
#
# Poissons Ratio (x) = 0.22496 0.52849
# Poissons Ratio (y) = 0.22496 0.52849
# Poissons Ratio (z) = 0.27151 0.27151
#
# Static dielectric constant tensor:
#      x y z
#    x 1.608550 0.000000 0.000000 
#    y 0.000000 1.608550 0.000000 
#    z 0.000000 0.000000 1.616540 
# 
# From -- ./inp_files/2084.got.cif
#   From: 2010.05.17/outbox.cif.g08.bks.cpg/sg194_2_cif.got.tgz:2084.got - 2010.05.20 12:39:09.
