data_PCOD9589823
_publ_section_title
;
Structure prediction by ZEFSAII (Michael W. Deem and Ramdas Pophale) SiO2 
 PCOD9589823
Probable space group: P 63/M M C
;
_chemical_formula_sum "Si O2"
_cell_formula_units_Z 168
_cell_length_a 17.534817
_cell_length_b 17.534817
_cell_length_c 36.147817
_cell_angle_alpha 90.000000
_cell_angle_beta 90.000000
_cell_angle_gamma 120.000000
_cell_volume 9625.320120
_symmetry_space_group_name_H-M "P 63/M M C"
_symmetry_group_IT_number 194
_symmetry_cell_setting 'hexagonal'
loop_
_space_group_symop_operation_xyz
x,y,z
x-y,x,1/2+z
-y,x-y,z
-x,-y,1/2+z
-x+y,-x,z
y,-x+y,1/2+z
x-y,-y,-z
-x,-x+y,-z
y,x,-z
-y,-x,1/2-z
-x+y,y,1/2-z
x,x-y,1/2-z
-x,-y,-z
-x+y,-x,1/2-z
y,-x+y,-z
x,y,1/2-z
x-y,x,-z
-y,x-y,1/2-z
-x+y,y,z
x,x-y,z
-y,-x,z
y,x,1/2+z
x-y,-y,1/2+z
-x,-x+y,1/2+z
loop_
_atom_site_type_symbol
_atom_site_label
_atom_site_fract_x
_atom_site_fract_y
_atom_site_fract_z
Si Si1 0.178966 0.177602 0.935675
Si Si2 0.903422 0.627150 0.458026
Si Si3 0.334443 0.495819 0.705080
Si Si4 0.055016 0.762879 0.792879
Si Si5 0.153925 0.488474 0.470020
Si Si6 0.595836 0.578983 0.597082
Si Si7 0.232888 0.940476 0.138125
O O1 0.078934 0.157868 0.937059
O O2 0.239311 0.267882 0.957782
O O3 0.218215 0.202360 0.894011
O O4 0.186220 0.093110 0.947957
O O5 0.808751 0.617501 0.450004
O O6 0.895045 0.578582 0.496459
O O7 0.932754 0.584351 0.425764
O O8 0.335237 0.499786 0.750000
O O9 0.257681 0.515362 0.692618
O O10 0.429579 0.570422 0.691637
O O11 0.302016 0.394742 0.696640
O O12 0.026267 0.747264 0.750000
O O13 0.139156 0.860845 0.795363
O O14 0.981788 0.747665 0.822376
O O15 0.246321 0.492642 0.464087
O O16 0.167282 0.583641 0.479823
O O17 0.094836 0.455836 0.433408
O O18 0.503727 0.496274 0.609263
O O19 0.669794 0.630355 0.627703
O O20 0.162472 0.837529 0.137197
#
# Coordination Sequence:
#
# PCOD9589823 Si02
#       7
#    24  24  24  24  24  24  24
#     4   9  17  30  49  72  98 130 166 203 243 290
#     4   9  18  31  48  73 102 131 165 205 248 295
#     4   8  13  22  39  65  95 124 152 182 218 263
#     4   9  18  32  50  72  98 128 160 196 240 289
#     4  10  19  32  51  74 100 129 165 210 258 304
#     4  10  20  34  52  73  99 132 168 207 250 294
#     4  10  20  33  50  73  98 125 162 205 249 298
#
# _framework density 17.453965
#
# number of rings (size 3 to 8) (size 9 to 14) (size 15 to 20)
#    0.000    2.714    0.000    3.000    0.000    3.714 
#    0.000    0.714    0.000    0.857    0.000    1.000 
#    0.000   37.714    0.000    0.000    0.000    0.000 
#
# Total GULP energy -937083.143760 kJ/mol
# GULP energy per Si atom -5577.875856 kJ/mol
# Density = 1.741424 g / cm^3
# Si number density = 17.453965 Si / 1000 Ang^3
#
#
#
# Elastic Constant Matrix: (Units=GPa)
#
#
# Indices 1 2 3 4 5 6 
#
# 1 55.0918 31.6116 24.1432 0.0000 0.0000 0.0000
# 2 31.6116 55.0918 24.1432 0.0000 0.0000 0.0000
# 3 24.1432 24.1432 62.6994 0.0000 0.0000 0.0000
# 4 0.0000 0.0000 0.0000 16.9252 0.0000 0.0000
# 5 0.0000 0.0000 0.0000 0.0000 16.9252 0.0000
# 6 0.0000 0.0000 0.0000 0.0000 0.0000 11.7401
#
#
#
# Elastic Compliance Matrix: (Units=1/GPa)
#
#
# Indices 1 2 3 4 5 6 
#
# 1 0.028636 -0.013954 -0.005654 0.000000 0.000000 0.000000
# 2 -0.013954 0.028636 -0.005654 0.000000 0.000000 0.000000
# 3 -0.005654 -0.005654 0.020303 0.000000 0.000000 0.000000
# 4 0.000000 0.000000 0.000000 0.059084 0.000000 0.000000
# 5 0.000000 0.000000 0.000000 0.000000 0.059084 0.000000
# 6 0.000000 0.000000 0.000000 0.000000 0.000000 0.085178
#
#
# Mechanical properties :
#
#
# Convention : Reuss Voigt Hill
#
# Bulk Modulus (GPa) = 36.96432 36.96436 36.96434
# Shear Modulus (GPa) = 14.68607 15.31708 15.00158
#
# Velocity S-wave (km/s) = 2.90387 2.96560 2.93489
# Velocity P-wave (km/s) = 5.69802 5.74025 5.71917
#
# Compressibility (1/GPa) = 0.02705312
#
# Stress axis : x y z
#
# Youngs Moduli (GPa) = 34.92152 34.92152 49.25364
#
# Poissons Ratio (x) = 0.48728 0.27846
# Poissons Ratio (y) = 0.48728 0.27846
# Poissons Ratio (z) = 0.19743 0.19743
#
# Static dielectric constant tensor:
#      x y z
#    x 1.593620 0.000000 0.000000 
#    y 0.000000 1.593620 0.000000 
#    z 0.000000 0.000000 1.590210 
# 
# From -- ./inp_files/12288.got.cif
#   From: 2010.05.17/outbox.cif.g08.bks.cpg/sg194_7_cif.got.tgz:12288.got - 2010.05.20 12:39:09.
