data_PCOD9589730
_publ_section_title
;
Structure prediction by ZEFSAII (Michael W. Deem and Ramdas Pophale) SiO2 
 PCOD9589730
Probable space group: P 63/M M C
;
_chemical_formula_sum "Si O2"
_cell_formula_units_Z 168
_cell_length_a 26.729769
_cell_length_b 26.729769
_cell_length_c 16.357351
_cell_angle_alpha 90.000000
_cell_angle_beta 90.000000
_cell_angle_gamma 120.000000
_cell_volume 10121.246820
_symmetry_space_group_name_H-M "P 63/M M C"
_symmetry_group_IT_number 194
_symmetry_cell_setting 'hexagonal'
loop_
_space_group_symop_operation_xyz
x,y,z
x-y,x,1/2+z
-y,x-y,z
-x,-y,1/2+z
-x+y,-x,z
y,-x+y,1/2+z
x-y,-y,-z
-x,-x+y,-z
y,x,-z
-y,-x,1/2-z
-x+y,y,1/2-z
x,x-y,1/2-z
-x,-y,-z
-x+y,-x,1/2-z
y,-x+y,-z
x,y,1/2-z
x-y,x,-z
-y,x-y,1/2-z
-x+y,y,z
x,x-y,z
-y,-x,z
y,x,1/2+z
x-y,-y,1/2+z
-x,-x+y,1/2+z
loop_
_atom_site_type_symbol
_atom_site_label
_atom_site_fract_x
_atom_site_fract_y
_atom_site_fract_z
Si Si1 0.387593 0.387593 0.000000
Si Si2 0.219424 0.667222 0.652347
Si Si3 0.999585 0.885820 0.401409
Si Si4 0.667958 0.446429 0.750000
Si Si5 0.500696 0.381365 0.469298
Si Si6 0.050946 0.351215 0.153412
Si Si7 0.172057 0.712817 0.109459
Si Si8 0.758460 0.936265 0.152047
O O1 0.448523 0.394601 0.028235
O O2 0.346467 0.364026 0.080779
O O3 0.216006 0.669693 0.750000
O O4 0.236629 0.618315 0.632790
O O5 0.270184 0.729817 0.623180
O O6 0.156686 0.643881 0.613063
O O7 0.938224 0.876447 0.372752
O O8 0.000000 0.888097 0.500000
O O9 0.015700 0.837789 0.376155
O O10 0.052504 0.947497 0.372179
O O11 0.602124 0.397877 0.750000
O O12 0.709632 0.419264 0.750000
O O13 0.685506 0.488587 0.673294
O O14 0.560531 0.439470 0.490572
O O15 0.481687 0.329662 0.533127
O O16 0.032471 0.348277 0.250000
O O17 0.116816 0.403613 0.147004
O O18 0.050859 0.292351 0.131310
O O19 0.222735 0.777266 0.090297
O O20 0.759031 0.933842 0.250000
O O21 0.748334 0.874167 0.120875
#
# Coordination Sequence:
#
# PCOD9589730 Si02
#       8
#    12  24  24  12  24  24  24  24
#     4  10  23  36  54  76 100 136 185 222 264 314
#     4   9  17  30  51  78 106 136 171 212 259 311
#     4   9  17  29  46  70 101 135 167 199 241 300
#     4  10  19  30  46  72 106 138 165 194 238 302
#     4  10  20  35  52  73 105 140 173 216 261 306
#     4  10  20  36  55  76 102 132 172 225 276 311
#     4  10  19  32  53  78 102 133 170 209 256 314
#     4   9  18  31  50  74  98 126 163 211 264 312
#
# _framework density 16.598745000000001
#
# number of rings (size 3 to 8) (size 9 to 14) (size 15 to 20)
#    0.000    2.429    0.714    1.857    1.000    2.571 
#    0.000    0.000    0.000    6.286    0.000    0.000 
#    0.000    0.000    0.000    0.000    0.000    0.000 
#
# Total GULP energy -935588.989736 kJ/mol
# GULP energy per Si atom -5568.982082 kJ/mol
# Density = 1.656097 g / cm^3
# Si number density = 16.598745 Si / 1000 Ang^3
#
#
#
# Elastic Constant Matrix: (Units=GPa)
#
#
# Indices 1 2 3 4 5 6 
#
# 1 85.1295 49.9435 32.1740 0.0000 0.0000 0.0000
# 2 49.9435 85.1295 32.1740 0.0000 0.0000 0.0000
# 3 32.1740 32.1740 43.7046 0.0000 0.0000 0.0000
# 4 0.0000 0.0000 0.0000 19.9493 0.0000 0.0000
# 5 0.0000 0.0000 0.0000 0.0000 19.9493 0.0000
# 6 0.0000 0.0000 0.0000 0.0000 0.0000 17.5930
#
#
#
# Elastic Compliance Matrix: (Units=1/GPa)
#
#
# Indices 1 2 3 4 5 6 
#
# 1 0.019911 -0.008509 -0.008394 0.000000 0.000000 0.000000
# 2 -0.008509 0.019911 -0.008394 0.000000 0.000000 0.000000
# 3 -0.008394 -0.008394 0.035240 0.000000 0.000000 0.000000
# 4 0.000000 0.000000 0.000000 0.050127 0.000000 0.000000
# 5 0.000000 0.000000 0.000000 0.000000 0.050127 0.000000
# 6 0.000000 0.000000 0.000000 0.000000 0.000000 0.056841
#
#
# Mechanical properties :
#
#
# Convention : Reuss Voigt Hill
#
# Bulk Modulus (GPa) = 40.86934 49.17184 45.02059
# Shear Modulus (GPa) = 17.18760 18.14313 17.66536
#
# Velocity S-wave (km/s) = 3.22137 3.30971 3.26584
# Velocity P-wave (km/s) = 6.20578 6.65535 6.43449
#
# Compressibility (1/GPa) = 0.02446822
#
# Stress axis : x y z
#
# Youngs Moduli (GPa) = 50.22266 50.22266 28.37709
#
# Poissons Ratio (x) = 0.42735 0.23820
# Poissons Ratio (y) = 0.42735 0.23820
# Poissons Ratio (z) = 0.42157 0.42157
#
# Static dielectric constant tensor:
#      x y z
#    x 1.556670 0.000000 0.000000 
#    y 0.000000 1.556670 0.000000 
#    z 0.000000 0.000000 1.587060 
# 
# From -- ./inp_files/5571.got.cif
#   From: 2010.05.17/outbox.cif.g08.bks.cpg/sg194_3_cif.got.tgz:5571.got - 2010.05.20 12:39:09.
