data_PCOD9589852
_publ_section_title
;
Structure prediction by ZEFSAII (Michael W. Deem and Ramdas Pophale) SiO2 
 PCOD9589852
Probable space group: P 63/M M C
;
_chemical_formula_sum "Si O2"
_cell_formula_units_Z 168
_cell_length_a 20.855182
_cell_length_b 20.855182
_cell_length_c 23.335566
_cell_angle_alpha 90.000000
_cell_angle_beta 90.000000
_cell_angle_gamma 120.000000
_cell_volume 8789.758425
_symmetry_space_group_name_H-M "P 63/M M C"
_symmetry_group_IT_number 194
_symmetry_cell_setting 'hexagonal'
loop_
_space_group_symop_operation_xyz
x,y,z
x-y,x,1/2+z
-y,x-y,z
-x,-y,1/2+z
-x+y,-x,z
y,-x+y,1/2+z
x-y,-y,-z
-x,-x+y,-z
y,x,-z
-y,-x,1/2-z
-x+y,y,1/2-z
x,x-y,1/2-z
-x,-y,-z
-x+y,-x,1/2-z
y,-x+y,-z
x,y,1/2-z
x-y,x,-z
-y,x-y,1/2-z
-x+y,y,z
x,x-y,z
-y,-x,z
y,x,1/2+z
x-y,-y,1/2+z
-x,-x+y,1/2+z
loop_
_atom_site_type_symbol
_atom_site_label
_atom_site_fract_x
_atom_site_fract_y
_atom_site_fract_z
Si Si1 0.086638 0.471675 0.344218
Si Si2 0.917771 0.223636 0.011469
Si Si3 0.083860 0.636639 0.815435
Si Si4 0.473168 0.808719 0.917990
Si Si5 0.088362 0.323237 0.182574
Si Si6 0.536542 0.844299 0.459830
Si Si7 0.695697 0.922304 0.855506
O O1 0.108685 0.554343 0.321097
O O2 0.105807 0.408879 0.321581
O O3 0.120318 0.484536 0.407975
O O4 0.998101 0.423824 0.336346
O O5 0.861584 0.138417 0.002295
O O6 0.911041 0.240651 0.077958
O O7 0.893350 0.268987 0.970422
O O8 0.000000 0.245154 0.000000
O O9 0.095023 0.621184 0.750000
O O10 0.138985 0.639446 0.863422
O O11 0.092218 0.717875 0.817667
O O12 0.385188 0.770376 0.919638
O O13 0.500561 0.750281 0.912520
O O14 0.501552 0.846781 0.979545
O O15 0.078559 0.305303 0.250000
O O16 0.160110 0.320220 0.161109
O O17 0.011142 0.262133 0.153229
O O18 0.518975 0.759488 0.449591
O O19 0.719741 0.859871 0.844035
#
# Coordination Sequence:
#
# PCOD9589852 Si02
#       7
#    24  24  24  24  24  24  24
#     4  11  22  36  58  85 112 148 192 240 295 353
#     4  10  19  32  53  81 113 146 184 228 279 345
#     4  11  23  38  56  80 113 147 185 237 292 340
#     4  11  23  39  56  76 105 143 185 227 276 334
#     4  10  22  39  59  85 119 157 196 245 305 364
#     4  10  21  37  57  83 113 145 183 234 294 355
#     4  10  19  34  58  87 114 146 189 235 285 349
#
# _framework density 19.113154000000002
#
# number of rings (size 3 to 8) (size 9 to 14) (size 15 to 20)
#    0.000    1.571    1.429    5.286    0.000    5.714 
#    0.000    1.429    0.000    4.429    0.000    0.000 
#    0.000    0.000    0.000    0.000    0.000    0.000 
#
# Total GULP energy -936069.793555 kJ/mol
# GULP energy per Si atom -5571.844009 kJ/mol
# Density = 1.906965 g / cm^3
# Si number density = 19.113154 Si / 1000 Ang^3
#
#
#
# Elastic Constant Matrix: (Units=GPa)
#
#
# Indices 1 2 3 4 5 6 
#
# 1 90.2757 50.1032 24.1043 0.0000 0.0000 0.0000
# 2 50.1032 90.2757 24.1043 0.0000 0.0000 0.0000
# 3 24.1043 24.1043 96.0547 0.0000 0.0000 0.0000
# 4 0.0000 0.0000 0.0000 -28.1066 0.0000 0.0000
# 5 0.0000 0.0000 0.0000 0.0000 -28.1066 0.0000
# 6 0.0000 0.0000 0.0000 0.0000 0.0000 20.0863
#
#
#
# Elastic Compliance Matrix: (Units=1/GPa)
#
#
# Indices 1 2 3 4 5 6 
#
# 1 0.016344 -0.008549 -0.001956 0.000000 0.000000 0.000000
# 2 -0.008549 0.016344 -0.001956 0.000000 0.000000 0.000000
# 3 -0.001956 -0.001956 0.011393 0.000000 0.000000 0.000000
# 4 0.000000 0.000000 0.000000 -0.035579 0.000000 0.000000
# 5 0.000000 0.000000 0.000000 0.000000 -0.035579 0.000000
# 6 0.000000 0.000000 0.000000 0.000000 0.000000 0.049785
#
#
# Mechanical properties :
#
#
# Convention : Reuss Voigt Hill
#
# Bulk Modulus (GPa) = 52.19620 52.58106 52.38863
# Shear Modulus (GPa) = 92.56482 4.66092 48.61287
#
# Velocity S-wave (km/s) = 6.96671 1.56329 5.04871
# Velocity P-wave (km/s) = 9.59592 5.55235 7.83934
#
# Compressibility (1/GPa) = 0.01915848
#
# Stress axis : x y z
#
# Youngs Moduli (GPa) = 61.18456 61.18456 87.77691
#
# Poissons Ratio (x) = 0.52304 0.17171
# Poissons Ratio (y) = 0.52304 0.17171
# Poissons Ratio (z) = 0.11969 0.11969
#
# Static dielectric constant tensor:
#      x y z
#    x 1.671540 0.000000 0.000000 
#    y 0.000000 1.671540 0.000000 
#    z 0.000000 0.000000 1.694340 
# 
# From -- ./inp_files/9849.got.cif
#   From: 2010.05.17/outbox.cif.g08.bks.cpg/sg194_5_cif.got.tgz:9849.got - 2010.05.20 12:39:09.
