data_PCOD9589443
_publ_section_title
;
Structure prediction by ZEFSAII (Michael W. Deem and Ramdas Pophale) SiO2 
 PCOD9589443
Probable space group: P 63/M C M
;
_chemical_formula_sum "Si O2"
_cell_formula_units_Z 90
_cell_length_a 18.454333
_cell_length_b 18.454333
_cell_length_c 17.109633
_cell_angle_alpha 90.000000
_cell_angle_beta 90.000000
_cell_angle_gamma 120.000000
_cell_volume 5046.241510
_symmetry_space_group_name_H-M "P 63/M C M"
_symmetry_group_IT_number 193
_symmetry_cell_setting 'hexagonal'
loop_
_space_group_symop_operation_xyz
x,y,z
x-y,x,1/2+z
-y,x-y,z
-x,-y,1/2+z
-x+y,-x,z
y,-x+y,1/2+z
x-y,-y,1/2-z
-x,-x+y,1/2-z
y,x,1/2-z
-y,-x,-z
-x+y,y,-z
x,x-y,-z
-x,-y,-z
-x+y,-x,1/2-z
y,-x+y,-z
x,y,1/2-z
x-y,x,-z
-y,x-y,1/2-z
-x+y,y,1/2+z
x,x-y,1/2+z
-y,-x,1/2+z
y,x,z
x-y,-y,z
-x,-x+y,z
loop_
_atom_site_type_symbol
_atom_site_label
_atom_site_fract_x
_atom_site_fract_y
_atom_site_fract_z
Si Si1 0.834218 0.219682 0.411510
Si Si2 0.502015 0.899023 0.657521
Si Si3 0.765194 0.000000 0.839257
Si Si4 0.656990 0.562946 0.656562
Si Si5 0.905989 0.000000 0.750000
O O1 0.810102 0.189899 0.500000
O O2 0.855425 0.314014 0.393817
O O3 0.751837 0.156585 0.363953
O O4 0.916612 0.218373 0.382606
O O5 0.500743 0.877655 0.750000
O O6 0.409685 0.878132 0.631423
O O7 0.559725 0.000000 0.651781
O O8 0.851337 0.000000 0.822904
O O9 0.733358 0.000000 0.750000
O O10 0.649052 0.560953 0.750000
O O11 0.623713 0.623713 0.625516
O O12 0.000000 0.078247 0.750000
#
# Coordination Sequence:
#
# PCOD9589443 Si02
#       5
#    24  24  12  24   6
#     4  12  24  36  59  95 130 162 207 259 325 380
#     4   9  18  38  65  85 116 159 206 247 297 372
#     4  10  22  42  67  87 118 175 221 263 302 402
#     4   9  20  38  62  90 114 155 207 260 305 366
#     4   8  20  44  66  92 108 156 230 272 334 352
#
# _framework density 17.835056000000002
#
# number of rings (size 3 to 8) (size 9 to 14) (size 15 to 20)
#    0.533    1.600    1.333    4.000    1.867    2.133 
#    1.600    2.667    0.000    0.800    0.000    0.000 
#    0.000    0.000    0.000    0.000    0.000    0.000 
#
# Total GULP energy -501696.815024 kJ/mol
# GULP energy per Si atom -5574.409056 kJ/mol
# Density = 1.779446 g / cm^3
# Si number density = 17.835056 Si / 1000 Ang^3
#
#
#
# Elastic Constant Matrix: (Units=GPa)
#
#
# Indices 1 2 3 4 5 6 
#
# 1 145.7458 82.8231 41.6042 0.0000 0.0000 0.0000
# 2 82.8231 145.7458 41.6042 0.0000 0.0000 0.0000
# 3 41.6042 41.6042 65.0006 0.0000 0.0000 0.0000
# 4 0.0000 0.0000 0.0000 38.8315 0.0000 0.0000
# 5 0.0000 0.0000 0.0000 0.0000 38.8315 0.0000
# 6 0.0000 0.0000 0.0000 0.0000 0.0000 31.4613
#
#
#
# Elastic Compliance Matrix: (Units=1/GPa)
#
#
# Indices 1 2 3 4 5 6 
#
# 1 0.010798 -0.005094 -0.003651 0.000000 0.000000 0.000000
# 2 -0.005094 0.010798 -0.003651 0.000000 0.000000 0.000000
# 3 -0.003651 -0.003651 0.020058 0.000000 0.000000 0.000000
# 4 0.000000 0.000000 0.000000 0.025752 0.000000 0.000000
# 5 0.000000 0.000000 0.000000 0.000000 0.025752 0.000000
# 6 0.000000 0.000000 0.000000 0.000000 0.000000 0.031785
#
#
# Mechanical properties :
#
#
# Convention : Reuss Voigt Hill
#
# Bulk Modulus (GPa) = 59.30316 76.50612 67.90464
# Shear Modulus (GPa) = 32.18381 34.52225 33.35303
#
# Velocity S-wave (km/s) = 4.25258 4.40436 4.32914
# Velocity P-wave (km/s) = 7.57863 8.29784 7.94638
#
# Compressibility (1/GPa) = 0.01686251
#
# Stress axis : x y z
#
# Youngs Moduli (GPa) = 92.60682 92.60682 49.85500
#
# Poissons Ratio (x) = 0.47176 0.18202
# Poissons Ratio (y) = 0.47176 0.18202
# Poissons Ratio (z) = 0.33811 0.33811
#
# Static dielectric constant tensor:
#      x y z
#    x 1.617520 0.000000 0.000000 
#    y 0.000000 1.617520 0.000000 
#    z 0.000000 0.000000 1.639010 
# 
# From -- ./inp_files/5097.got.cif
#   From: 2010.05.17/outbox.cif.g08.bks.cpg/sg193_3_cif.got.tgz:5097.got - 2010.05.20 12:33:02.
