data_PCOD9589963
_publ_section_title
;
Structure prediction by ZEFSAII (Michael W. Deem and Ramdas Pophale) SiO2 
 PCOD9589963
Probable space group: P 63/M M C
;
_chemical_formula_sum "Si O2"
_cell_formula_units_Z 144
_cell_length_a 32.611507
_cell_length_b 32.611507
_cell_length_c 9.133954
_cell_angle_alpha 90.000000
_cell_angle_beta 90.000000
_cell_angle_gamma 120.000000
_cell_volume 8412.618378
_symmetry_space_group_name_H-M "P 63/M M C"
_symmetry_group_IT_number 194
_symmetry_cell_setting 'hexagonal'
loop_
_space_group_symop_operation_xyz
x,y,z
x-y,x,1/2+z
-y,x-y,z
-x,-y,1/2+z
-x+y,-x,z
y,-x+y,1/2+z
x-y,-y,-z
-x,-x+y,-z
y,x,-z
-y,-x,1/2-z
-x+y,y,1/2-z
x,x-y,1/2-z
-x,-y,-z
-x+y,-x,1/2-z
y,-x+y,-z
x,y,1/2-z
x-y,x,-z
-y,x-y,1/2-z
-x+y,y,z
x,x-y,z
-y,-x,z
y,x,1/2+z
x-y,-y,1/2+z
-x,-x+y,1/2+z
loop_
_atom_site_type_symbol
_atom_site_label
_atom_site_fract_x
_atom_site_fract_y
_atom_site_fract_z
Si Si1 0.563273 0.950608 0.078097
Si Si2 0.139625 0.520419 0.919985
Si Si3 0.048611 0.193534 0.423691
Si Si4 0.294632 0.099169 0.422392
Si Si5 0.661458 0.710679 0.421545
Si Si6 0.667096 0.237612 0.574368
O O1 0.554322 0.953017 0.250000
O O2 0.609763 0.945097 0.064202
O O3 0.520034 0.905543 0.003411
O O4 0.576501 0.000000 0.000000
O O5 0.138807 0.507624 0.750000
O O6 0.137252 0.568626 0.927086
O O7 0.189345 0.533349 0.994885
O O8 0.042115 0.196209 0.250000
O O9 0.091264 0.182527 0.445446
O O10 0.066303 0.244523 0.498023
O O11 0.000000 0.156387 0.500000
O O12 0.290568 0.087989 0.250000
O O13 0.305398 0.152699 0.439035
O O14 0.333091 0.089644 0.498317
O O15 0.697375 0.697375 0.500000
O O16 0.672652 0.719924 0.250000
O O17 0.667290 0.231370 0.750000
O O18 0.623113 0.246226 0.541875
O O19 0.716558 0.283443 0.532509
#
# Coordination Sequence:
#
# PCOD9589963 Si02
#       6
#    24  24  24  24  24  24
#     4  10  21  37  57  79 102 133 172 214 260 308
#     4  10  21  36  54  78 108 140 174 215 262 309
#     4  10  20  33  50  72  98 128 161 200 246 293
#     4  10  20  33  50  73 101 132 165 201 242 289
#     4  10  20  34  53  75  99 128 163 203 246 294
#     4   9  17  31  53  80 109 141 177 216 258 306
#
# _framework density 17.117142999999999
#
# number of rings (size 3 to 8) (size 9 to 14) (size 15 to 20)
#    0.000    2.167    0.000    3.167    0.000    6.333 
#    0.000    0.833    0.000    2.167    0.000    0.000 
#    0.000    0.000    0.000    0.000    0.000    0.000 
#
# Total GULP energy -803822.010043 kJ/mol
# GULP energy per Si atom -5582.097292 kJ/mol
# Density = 1.707818 g / cm^3
# Si number density = 17.117143 Si / 1000 Ang^3
#
#
#
# Elastic Constant Matrix: (Units=GPa)
#
#
# Indices 1 2 3 4 5 6 
#
# 1 85.1376 50.0563 68.0403 0.0000 0.0000 0.0000
# 2 50.0563 85.1376 68.0403 0.0000 0.0000 0.0000
# 3 68.0403 68.0403 126.3441 0.0000 0.0000 0.0000
# 4 0.0000 0.0000 0.0000 31.0824 0.0000 0.0000
# 5 0.0000 0.0000 0.0000 0.0000 31.0824 0.0000
# 6 0.0000 0.0000 0.0000 0.0000 0.0000 17.5407
#
#
#
# Elastic Compliance Matrix: (Units=1/GPa)
#
#
# Indices 1 2 3 4 5 6 
#
# 1 0.022329 -0.006176 -0.008699 0.000000 0.000000 0.000000
# 2 -0.006176 0.022329 -0.008699 0.000000 0.000000 0.000000
# 3 -0.008699 -0.008699 0.017284 0.000000 0.000000 0.000000
# 4 0.000000 0.000000 0.000000 0.032173 0.000000 0.000000
# 5 0.000000 0.000000 0.000000 0.000000 0.032173 0.000000
# 6 0.000000 0.000000 0.000000 0.000000 0.000000 0.057010
#
#
# Mechanical properties :
#
#
# Convention : Reuss Voigt Hill
#
# Bulk Modulus (GPa) = 67.59356 74.32146 70.95751
# Shear Modulus (GPa) = 21.24265 23.30659 22.27462
#
# Velocity S-wave (km/s) = 3.52663 3.69398 3.61127
# Velocity P-wave (km/s) = 7.49382 7.85542 7.67675
#
# Compressibility (1/GPa) = 0.01479431
#
# Stress axis : x y z
#
# Youngs Moduli (GPa) = 44.78519 44.78519 57.85750
#
# Poissons Ratio (x) = 0.27661 0.50328
# Poissons Ratio (y) = 0.27661 0.50328
# Poissons Ratio (z) = 0.38957 0.38957
#
# Static dielectric constant tensor:
#      x y z
#    x 1.564990 0.000000 0.000000 
#    y 0.000000 1.564990 0.000000 
#    z 0.000000 0.000000 1.571990 
# 
# From -- ./inp_files/2101.got.cif
#   From: 2010.05.17/outbox.cif.g08.bks.cpg/sg194_2_cif.got.tgz:2101.got - 2010.05.20 12:39:09.
