data_PCOD9589238
_publ_section_title
;
Structure prediction by ZEFSAII (Michael W. Deem and Ramdas Pophale) SiO2 
 PCOD9589238
Probable space group: P 63/M C M
;
_chemical_formula_sum "Si O2"
_cell_formula_units_Z 120
_cell_length_a 13.675575
_cell_length_b 13.675575
_cell_length_c 31.669827
_cell_angle_alpha 90.000000
_cell_angle_beta 90.000000
_cell_angle_gamma 120.000000
_cell_volume 5129.411179
_symmetry_space_group_name_H-M "P 63/M C M"
_symmetry_group_IT_number 193
_symmetry_cell_setting 'hexagonal'
loop_
_space_group_symop_operation_xyz
x,y,z
x-y,x,1/2+z
-y,x-y,z
-x,-y,1/2+z
-x+y,-x,z
y,-x+y,1/2+z
x-y,-y,1/2-z
-x,-x+y,1/2-z
y,x,1/2-z
-y,-x,-z
-x+y,y,-z
x,x-y,-z
-x,-y,-z
-x+y,-x,1/2-z
y,-x+y,-z
x,y,1/2-z
x-y,x,-z
-y,x-y,1/2-z
-x+y,y,1/2+z
x,x-y,1/2+z
-y,-x,1/2+z
y,x,z
x-y,-y,z
-x,-x+y,z
loop_
_atom_site_type_symbol
_atom_site_label
_atom_site_fract_x
_atom_site_fract_y
_atom_site_fract_z
Si Si1 0.134738 0.872852 0.333404
Si Si2 0.575616 0.448541 0.880687
Si Si3 0.663635 0.524960 0.797188
Si Si4 0.787569 0.661984 0.923744
Si Si5 0.136766 0.648964 0.964491
O O1 0.169152 0.789563 0.310457
O O2 0.152808 0.870115 0.383950
O O3 0.000000 0.817978 0.327260
O O4 0.203264 0.000000 0.317737
O O5 0.470636 0.470636 0.875627
O O6 0.611034 0.433796 0.834442
O O7 0.678205 0.562185 0.900191
O O8 0.545264 0.363780 0.918753
O O9 0.658108 0.483335 0.750000
O O10 0.592045 0.592045 0.798504
O O11 0.746778 0.746778 0.940709
O O12 0.828135 0.607537 0.959215
O O13 0.000000 0.576409 0.966026
O O14 0.173481 0.586741 0.000000
#
# Coordination Sequence:
#
# PCOD9589238 Si02
#       5
#    24  24  24  24  24
#     4   9  16  26  44  74 115 164 213 258 305 366
#     4   8  16  32  52  76 109 147 194 253 313 377
#     4   8  14  26  46  71 102 147 200 254 316 375
#     4   9  18  34  55  79 114 158 198 245 317 394
#     4  10  20  34  56  87 120 157 210 270 324 384
#
# _framework density 23.394500000000001
#
# number of rings (size 3 to 8) (size 9 to 14) (size 15 to 20)
#    0.000    3.200    0.000    3.200    0.000    1.200 
#    1.200    0.000    0.000   11.200    0.000    5.600 
#    0.000    0.000    0.000  135.600    0.000    0.000 
#
# Total GULP energy -669417.260283 kJ/mol
# GULP energy per Si atom -5578.477169 kJ/mol
# Density = 2.334125 g / cm^3
# Si number density = 23.394500 Si / 1000 Ang^3
#
#
#
# Elastic Constant Matrix: (Units=GPa)
#
#
# Indices 1 2 3 4 5 6 
#
# 1 67.6909 23.0704 42.5800 0.0000 0.0000 0.0000
# 2 23.0704 67.6909 42.5800 0.0000 0.0000 0.0000
# 3 42.5800 42.5800 199.9437 0.0000 0.0000 0.0000
# 4 0.0000 0.0000 0.0000 9.3949 0.0000 0.0000
# 5 0.0000 0.0000 0.0000 0.0000 9.3949 0.0000
# 6 0.0000 0.0000 0.0000 0.0000 0.0000 22.3102
#
#
#
# Elastic Compliance Matrix: (Units=1/GPa)
#
#
# Indices 1 2 3 4 5 6 
#
# 1 0.018090 -0.004321 -0.002932 0.000000 0.000000 0.000000
# 2 -0.004321 0.018090 -0.002932 0.000000 0.000000 0.000000
# 3 -0.002932 -0.002932 0.006250 0.000000 0.000000 0.000000
# 4 0.000000 0.000000 0.000000 0.106440 0.000000 0.000000
# 5 0.000000 0.000000 0.000000 0.000000 0.106440 0.000000
# 6 0.000000 0.000000 0.000000 0.000000 0.000000 0.044823
#
#
# Mechanical properties :
#
#
# Convention : Reuss Voigt Hill
#
# Bulk Modulus (GPa) = 45.33166 61.30957 53.32061
# Shear Modulus (GPa) = 15.25048 23.35969 19.30509
#
# Velocity S-wave (km/s) = 2.55597 3.16335 2.87574
# Velocity P-wave (km/s) = 5.30375 6.29334 5.81962
#
# Compressibility (1/GPa) = 0.02205964
#
# Stress axis : x y z
#
# Youngs Moduli (GPa) = 55.27840 55.27840 159.99161
#
# Poissons Ratio (x) = 0.23886 0.46914
# Poissons Ratio (y) = 0.23886 0.46914
# Poissons Ratio (z) = 0.16209 0.16209
#
# Static dielectric constant tensor:
#      x y z
#    x 2.023510 0.000000 0.000000 
#    y 0.000000 2.023510 0.000000 
#    z 0.000000 0.000000 1.960020 
# 
# From -- ./inp_files/8957.got.cif
#   From: 2010.05.17/outbox.cif.g08.bks.cpg/sg193_5_cif.got.tgz:8957.got - 2010.05.20 12:33:02.
