data_PCOD9590213
_publ_section_title
;
Structure prediction by ZEFSAII (Michael W. Deem and Ramdas Pophale) SiO2 
 PCOD9590213
Probable space group: P 63/M M C
;
_chemical_formula_sum "Si O2"
_cell_formula_units_Z 192
_cell_length_a 30.000000
_cell_length_b 30.000000
_cell_length_c 15.000000
_cell_angle_alpha 90.000000
_cell_angle_beta 90.000000
_cell_angle_gamma 120.000000
_cell_volume 11691.342951
_symmetry_space_group_name_H-M "P 63/M M C"
_symmetry_group_IT_number 194
_symmetry_cell_setting 'hexagonal'
loop_
_space_group_symop_operation_xyz
x,y,z
x-y,x,1/2+z
-y,x-y,z
-x,-y,1/2+z
-x+y,-x,z
y,-x+y,1/2+z
x-y,-y,-z
-x,-x+y,-z
y,x,-z
-y,-x,1/2-z
-x+y,y,1/2-z
x,x-y,1/2-z
-x,-y,-z
-x+y,-x,1/2-z
y,-x+y,-z
x,y,1/2-z
x-y,x,-z
-y,x-y,1/2-z
-x+y,y,z
x,x-y,z
-y,-x,z
y,x,1/2+z
x-y,-y,1/2+z
-x,-x+y,1/2+z
loop_
_atom_site_type_symbol
_atom_site_label
_atom_site_fract_x
_atom_site_fract_y
_atom_site_fract_z
Si Si1 0.471123 0.132284 0.347041
Si Si2 0.286264 0.812409 0.092461
Si Si3 0.913379 0.375431 0.844038
Si Si4 0.440085 0.667948 0.558821
Si Si5 0.659330 0.692078 0.146468
Si Si6 0.478522 0.422927 0.020525
Si Si7 0.263195 0.351319 0.850359
Si Si8 0.128204 0.772071 0.466166
O O1 0.480788 0.117423 0.250000
O O2 0.518240 0.188566 0.369972
O O3 0.468771 0.091928 0.417689
O O4 0.413543 0.122769 0.346340
O O5 0.237382 0.762619 0.133328
O O6 0.327281 0.855883 0.155462
O O7 0.261871 0.842705 0.038919
O O8 0.315771 0.791641 0.029999
O O9 0.927071 0.402755 0.750000
O O10 0.950276 0.351183 0.859668
O O11 0.917432 0.410274 0.925426
O O12 0.426889 0.713445 0.574588
O O13 0.388302 0.611699 0.555396
O O14 0.668668 0.708122 0.250000
O O15 0.695483 0.667420 0.126603
O O16 0.664510 0.739750 0.088818
O O17 0.524140 0.475861 0.058281
O O18 0.431151 0.431151 0.000000
O O19 0.243582 0.332430 0.750000
O O20 0.225004 0.337106 0.932817
O O21 0.171398 0.828603 0.433248
#
# Coordination Sequence:
#
# PCOD9590213 Si02
#       8
#    24  24  24  24  24  24  24  24
#     4  11  22  37  57  75  95 125 157 191 234 288
#     4   9  18  32  50  72  96 121 150 187 237 294
#     4  10  19  32  51  73  95 120 150 187 229 278
#     4  11  22  38  57  76  98 125 161 204 252 307
#     4   9  18  31  48  70  97 129 165 203 243 291
#     4  11  23  36  49  68  96 123 146 177 214 260
#     4  10  19  31  49  72  96 128 166 202 244 294
#     4  10  18  30  48  71  99 131 164 203 249 297
#
# _framework density 16.422408000000001
#
# number of rings (size 3 to 8) (size 9 to 14) (size 15 to 20)
#    0.000    1.875    2.500    2.375    0.000    3.750 
#    0.000    5.000    0.000    0.750    0.000    0.000 
#    0.000    1.000    0.000    0.000    0.000    0.000 
#
# Total GULP energy -1068898.426385 kJ/mol
# GULP energy per Si atom -5567.179304 kJ/mol
# Density = 1.638503 g / cm^3
# Si number density = 16.422408 Si / 1000 Ang^3
#
#
#
# Elastic Constant Matrix: (Units=GPa)
#
#
# Indices 1 2 3 4 5 6 
#
# 1 126.4658 -57.7062 10.6421 0.0000 0.0000 0.0000
# 2 -57.7062 126.4658 10.6421 0.0000 0.0000 0.0000
# 3 10.6421 10.6421 61.4131 0.0000 0.0000 0.0000
# 4 0.0000 0.0000 0.0000 10.1990 0.0000 0.0000
# 5 0.0000 0.0000 0.0000 0.0000 10.1990 0.0000
# 6 0.0000 0.0000 0.0000 0.0000 0.0000 92.0860
#
#
#
# Elastic Compliance Matrix: (Units=1/GPa)
#
#
# Indices 1 2 3 4 5 6 
#
# 1 0.010399 0.004969 -0.002663 0.000000 0.000000 0.000000
# 2 0.004969 0.010399 -0.002663 0.000000 0.000000 0.000000
# 3 -0.002663 -0.002663 0.017206 0.000000 0.000000 0.000000
# 4 0.000000 0.000000 0.000000 0.098049 0.000000 0.000000
# 5 0.000000 0.000000 0.000000 0.000000 0.098049 0.000000
# 6 0.000000 0.000000 0.000000 0.000000 0.000000 0.010859
#
#
# Mechanical properties :
#
#
# Convention : Reuss Voigt Hill
#
# Bulk Modulus (GPa) = 26.81724 26.83343 26.82533
# Shear Modulus (GPa) = 19.37200 45.88124 32.62662
#
# Velocity S-wave (km/s) = 3.43827 5.29139 4.46209
# Velocity P-wave (km/s) = 5.66810 7.32849 6.55111
#
# Compressibility (1/GPa) = 0.03728945
#
# Stress axis : x y z
#
# Youngs Moduli (GPa) = 96.16556 96.16556 58.11891
#
# Poissons Ratio (x) = -0.47785 0.15477
# Poissons Ratio (y) = -0.47785 0.15477
# Poissons Ratio (z) = 0.25609 0.25609
#
# Static dielectric constant tensor:
#      x y z
#    x 1.551930 0.000000 0.000000 
#    y 0.000000 1.551930 0.000000 
#    z 0.000000 0.000000 1.936730 
# 
# From -- ./inp_files/5726.got.cif
#   From: 2010.05.17/outbox.ucp.g08.bks.cvg/sg194_3_cif.got.tgz:5726.got - 2010.06.11 15:24:05.
