data_PCOD9590424
_publ_section_title
;
Structure prediction by ZEFSAII (Michael W. Deem and Ramdas Pophale) SiO2 
 PCOD9590424
Probable space group: P A 3
;
_chemical_formula_sum "Si O2"
_cell_formula_units_Z 120
_cell_length_a 18.231081
_cell_length_b 18.231081
_cell_length_c 18.231081
_cell_angle_alpha 90.000000
_cell_angle_beta 90.000000
_cell_angle_gamma 90.000000
_cell_volume 6059.506587
_symmetry_space_group_name_H-M "P A 3"
_symmetry_group_IT_number 205
_symmetry_cell_setting 'cubic'
loop_
_space_group_symop_operation_xyz
x,y,z
z,x,y
y,z,x
1/2-y,-z,1/2+x
1/2+z,1/2-x,-y
-y,1/2+z,1/2-x
1/2-z,-x,1/2+y
-z,1/2+x,1/2-y
1/2+y,1/2-z,-x
1/2-x,-y,1/2+z
1/2+x,1/2-y,-z
-x,1/2+y,1/2-z
-x,-y,-z
-z,-x,-y
-y,-z,-x
1/2+y,z,1/2-x
1/2-z,1/2+x,y
y,1/2-z,1/2+x
1/2+z,x,1/2-y
z,1/2-x,1/2+y
1/2-y,1/2+z,x
1/2+x,y,1/2-z
1/2-x,1/2+y,z
x,1/2-y,1/2+z
loop_
_atom_site_type_symbol
_atom_site_label
_atom_site_fract_x
_atom_site_fract_y
_atom_site_fract_z
Si Si1 0.059340 0.386246 0.253054
Si Si2 0.813366 0.587207 0.660815
Si Si3 0.396467 0.728196 0.214861
Si Si4 0.063329 0.809813 0.771445
Si Si5 0.395062 0.879547 0.943414
O O1 0.108708 0.436392 0.305234
O O2 0.091229 0.302930 0.259720
O O3 0.072010 0.408312 0.169683
O O4 0.976148 0.386503 0.276813
O O5 0.763378 0.593911 0.733676
O O6 0.824455 0.658997 0.613206
O O7 0.341787 0.748340 0.147141
O O8 0.479557 0.702380 0.201566
O O9 0.063804 0.868920 0.705385
O O10 0.471415 0.895684 0.903399
#
# Coordination Sequence:
#
# PCOD9590424 Si02
#       5
#    24  24  24  24  24
#     4  10  23  40  62  95 128 175 217 276 329 403
#     4  10  23  38  61  91 131 168 223 271 331 392
#     4   9  20  36  62  92 126 162 222 275 325 387
#     4  10  22  39  64  96 128 179 219 279 331 397
#     4  11  25  43  69  96 133 176 219 276 350 416
#
# _framework density 19.803594
#
# number of rings (size 3 to 8) (size 9 to 14) (size 15 to 20)
#    0.400    1.600    0.000    1.800   14.000    4.800 
#    0.000    0.000    0.000    0.400    0.000    0.000 
#    0.000    0.000    0.000    0.000    0.000    0.000 
#
# Total GULP energy -669168.858477 kJ/mol
# GULP energy per Si atom -5576.407154 kJ/mol
# Density = 1.975852 g / cm^3
# Si number density = 19.803594 Si / 1000 Ang^3
#
#
#
# Elastic Constant Matrix: (Units=GPa)
#
#
# Indices 1 2 3 4 5 6 
#
# 1 91.2877 52.1270 52.1270 0.0000 0.0000 0.0000
# 2 52.1270 91.2877 52.1270 0.0000 0.0000 0.0000
# 3 52.1270 52.1270 91.2877 0.0000 0.0000 0.0000
# 4 0.0000 0.0000 0.0000 23.6934 0.0000 0.0000
# 5 0.0000 0.0000 0.0000 0.0000 23.6934 0.0000
# 6 0.0000 0.0000 0.0000 0.0000 0.0000 23.6934
#
#
#
# Elastic Compliance Matrix: (Units=1/GPa)
#
#
# Indices 1 2 3 4 5 6 
#
# 1 0.018729 -0.006807 -0.006807 0.000000 0.000000 0.000000
# 2 -0.006807 0.018729 -0.006807 0.000000 0.000000 0.000000
# 3 -0.006807 -0.006807 0.018729 0.000000 0.000000 0.000000
# 4 0.000000 0.000000 0.000000 0.042206 0.000000 0.000000
# 5 0.000000 0.000000 0.000000 0.000000 0.042206 0.000000
# 6 0.000000 0.000000 0.000000 0.000000 0.000000 0.042206
#
#
# Mechanical properties :
#
#
# Convention : Reuss Voigt Hill
#
# Bulk Modulus (GPa) = 65.18057 65.18057 65.18057
# Shear Modulus (GPa) = 21.85690 22.04819 21.95254
#
# Velocity S-wave (km/s) = 3.32578 3.34030 3.33305
# Velocity P-wave (km/s) = 6.90888 6.91822 6.91355
#
# Compressibility (1/GPa) = 0.01534200
#
# Stress axis : x y z
#
# Youngs Moduli (GPa) = 53.39441 53.39441 53.39441
#
# Poissons Ratio (x) = 0.36347 0.36347
# Poissons Ratio (y) = 0.36347 0.36347
# Poissons Ratio (z) = 0.36347 0.36347
#
# Static dielectric constant tensor:
#      x y z
#    x 1.724770 0.000000 0.000000 
#    y 0.000000 1.724770 0.000000 
#    z 0.000000 0.000000 1.724770 
# 
# From -- ./inp_files/498.got.cif
#   From: 2010.05.17/outbox.cif.g08.bks.cpg/sg205_cif.got.tgz:498.got - 2010.05.20 12:49:04.
