data_PCOD9590704
_publ_section_title
;
Structure prediction by ZEFSAII (Michael W. Deem and Ramdas Pophale) SiO2 
 PCOD9590704
Probable space group: P M 3 M
;
_chemical_formula_sum "Si O2"
_cell_formula_units_Z 144
_cell_length_a 21.059161
_cell_length_b 21.059161
_cell_length_c 21.059161
_cell_angle_alpha 90.000000
_cell_angle_beta 90.000000
_cell_angle_gamma 90.000000
_cell_volume 9339.490712
_symmetry_space_group_name_H-M "P M 3 M"
_symmetry_group_IT_number 221
_symmetry_cell_setting 'cubic'
loop_
_space_group_symop_operation_xyz
x,y,z
-y,x,z
-x,-y,z
y,-x,z
x,-z,y
x,-y,-z
x,z,-y
z,y,-x
-x,y,-z
-z,y,x
z,x,y
y,z,x
-y,-z,x
z,-x,-y
-y,z,-x
-z,-x,y
-z,x,-y
y,-z,-x
y,x,-z
-y,-x,-z
-x,z,y
-x,-z,-y
z,-y,x
-z,-y,-x
-x,-y,-z
y,-x,-z
x,y,-z
-y,x,-z
-x,z,-y
-x,y,z
-x,-z,y
-z,-y,x
x,-y,z
z,-y,-x
-z,-x,-y
-y,-z,-x
y,z,-x
-z,x,y
y,-z,x
z,x,-y
z,-x,y
-y,z,x
-y,-x,z
y,x,z
x,-z,-y
x,z,y
-z,y,-x
z,y,x
loop_
_atom_site_type_symbol
_atom_site_label
_atom_site_fract_x
_atom_site_fract_y
_atom_site_fract_z
Si Si1 0.284944 0.177269 0.500000
Si Si2 0.072836 0.715976 0.821544
Si Si3 0.072063 0.284660 0.391471
Si Si4 0.500000 0.392468 0.715044
O O1 0.223662 0.223662 0.500000
O O2 0.285077 0.129455 0.559475
O O3 0.346177 0.223658 0.500000
O O4 0.085528 0.776473 0.776473
O O5 0.121693 0.712797 0.878308
O O6 0.078082 0.654811 0.775912
O O7 0.000000 0.719911 0.843470
O O8 0.075789 0.346184 0.346184
O O9 0.000000 0.283417 0.418892
O O10 0.561468 0.438533 0.715120
O O11 0.500000 0.346527 0.653474
#
# Coordination Sequence:
#
# PCOD9590704 Si02
#       4
#    24  48  48  24
#     4  11  20  30  48  72  97 120 145 183 229 270
#     4   9  17  29  45  65  89 117 150 187 226 268
#     4   9  18  32  48  66  90 121 155 186 217 260
#     4  10  21  36  53  72  94 120 150 184 222 265
#
# _framework density 15.418400999999999
#
# number of rings (size 3 to 8) (size 9 to 14) (size 15 to 20)
#    0.000    2.500    0.000    5.167    0.000    0.333 
#    0.000    0.000    0.000   12.000    0.000    7.000 
#    0.000   12.000    0.000   10.333    0.000    0.000 
#
# Total GULP energy -802583.676765 kJ/mol
# GULP energy per Si atom -5573.497755 kJ/mol
# Density = 1.538331 g / cm^3
# Si number density = 15.418401 Si / 1000 Ang^3
#
#
#
# Elastic Constant Matrix: (Units=GPa)
#
#
# Indices 1 2 3 4 5 6 
#
# 1 127.3681 75.0940 75.0940 0.0000 0.0000 0.0000
# 2 75.0940 127.3681 75.0940 0.0000 0.0000 0.0000
# 3 75.0940 75.0940 127.3681 0.0000 0.0000 0.0000
# 4 0.0000 0.0000 0.0000 20.3680 0.0000 0.0000
# 5 0.0000 0.0000 0.0000 0.0000 20.3680 0.0000
# 6 0.0000 0.0000 0.0000 0.0000 0.0000 20.3680
#
#
#
# Elastic Compliance Matrix: (Units=1/GPa)
#
#
# Indices 1 2 3 4 5 6 
#
# 1 0.013954 -0.005176 -0.005176 0.000000 0.000000 0.000000
# 2 -0.005176 0.013954 -0.005176 0.000000 0.000000 0.000000
# 3 -0.005176 -0.005176 0.013954 0.000000 0.000000 0.000000
# 4 0.000000 0.000000 0.000000 0.049097 0.000000 0.000000
# 5 0.000000 0.000000 0.000000 0.000000 0.049097 0.000000
# 6 0.000000 0.000000 0.000000 0.000000 0.000000 0.049097
#
#
# Mechanical properties :
#
#
# Convention : Reuss Voigt Hill
#
# Bulk Modulus (GPa) = 92.51873 92.51873 92.51873
# Shear Modulus (GPa) = 22.34043 22.67563 22.50803
#
# Velocity S-wave (km/s) = 3.81063 3.83911 3.82490
# Velocity P-wave (km/s) = 8.91610 8.93238 8.92424
#
# Compressibility (1/GPa) = 0.01080862
#
# Stress axis : x y z
#
# Youngs Moduli (GPa) = 71.66272 71.66272 71.66272
#
# Poissons Ratio (x) = 0.37090 0.37090
# Poissons Ratio (y) = 0.37090 0.37090
# Poissons Ratio (z) = 0.37090 0.37090
#
# Static dielectric constant tensor:
#      x y z
#    x 1.494510 0.000000 0.000000 
#    y 0.000000 1.494510 0.000000 
#    z 0.000000 0.000000 1.494510 
# 
# From -- ./inp_files/306.got.cif
#   From: 2010.05.17/outbox.cif.g08.bks.cpg/sg221_cif.got.tgz:306.got - 2010.05.20 12:54:48.
