data_PCOD9590411
_publ_section_title
;
Structure prediction by ZEFSAII (Michael W. Deem and Ramdas Pophale) SiO2 
 PCOD9590411
Probable space group: P A 3
;
_chemical_formula_sum "Si O2"
_cell_formula_units_Z 168
_cell_length_a 21.832764
_cell_length_b 21.832764
_cell_length_c 21.832764
_cell_angle_alpha 90.000000
_cell_angle_beta 90.000000
_cell_angle_gamma 90.000000
_cell_volume 10407.014531
_symmetry_space_group_name_H-M "P A 3"
_symmetry_group_IT_number 205
_symmetry_cell_setting 'cubic'
loop_
_space_group_symop_operation_xyz
x,y,z
z,x,y
y,z,x
1/2-y,-z,1/2+x
1/2+z,1/2-x,-y
-y,1/2+z,1/2-x
1/2-z,-x,1/2+y
-z,1/2+x,1/2-y
1/2+y,1/2-z,-x
1/2-x,-y,1/2+z
1/2+x,1/2-y,-z
-x,1/2+y,1/2-z
-x,-y,-z
-z,-x,-y
-y,-z,-x
1/2+y,z,1/2-x
1/2-z,1/2+x,y
y,1/2-z,1/2+x
1/2+z,x,1/2-y
z,1/2-x,1/2+y
1/2-y,1/2+z,x
1/2+x,y,1/2-z
1/2-x,1/2+y,z
x,1/2-y,1/2+z
loop_
_atom_site_type_symbol
_atom_site_label
_atom_site_fract_x
_atom_site_fract_y
_atom_site_fract_z
Si Si1 0.490504 0.290670 0.419464
Si Si2 0.344876 0.455306 0.051678
Si Si3 0.302793 0.990607 0.875148
Si Si4 0.421713 0.792576 0.968190
Si Si5 0.435502 0.038690 0.656577
Si Si6 0.484992 0.168051 0.669270
Si Si7 0.803511 0.623450 0.034789
O O1 0.427140 0.301747 0.456353
O O2 0.497487 0.330381 0.359129
O O3 0.544154 0.306488 0.467709
O O4 0.489932 0.217826 0.406398
O O5 0.280723 0.466585 0.085828
O O6 0.399839 0.475770 0.094842
O O7 0.346798 0.384190 0.033831
O O8 0.344189 0.496022 0.989761
O O9 0.238135 0.990864 0.839668
O O10 0.308630 0.927148 0.911990
O O11 0.359147 0.829190 0.961639
O O12 0.470819 0.806953 0.914471
O O13 0.437179 0.112141 0.662558
O O14 0.462408 0.236520 0.654815
#
# Coordination Sequence:
#
# PCOD9590411 Si02
#       7
#    24  24  24  24  24  24  24
#     4   9  19  32  49  74  99 130 165 207 242 298
#     4  10  19  32  50  73 102 130 165 205 252 293
#     4  10  19  33  52  73 101 131 165 203 254 289
#     4   9  19  32  49  74 100 127 170 203 242 298
#     4  10  19  32  50  73 102 128 166 204 251 297
#     4  10  20  32  49  74 101 128 165 204 242 301
#     4  10  19  33  52  73 101 132 164 207 247 292
#
# _framework density 16.142959000000001
#
# number of rings (size 3 to 8) (size 9 to 14) (size 15 to 20)
#    0.000    2.286    0.000    5.714    2.000    0.000 
#    0.000    1.429    0.000    4.571    0.000    0.000 
#   20.000    0.000    0.000    0.000    0.000    0.000 
#
# Total GULP energy -936341.746744 kJ/mol
# GULP energy per Si atom -5573.462778 kJ/mol
# Density = 1.610622 g / cm^3
# Si number density = 16.142959 Si / 1000 Ang^3
#
#
#
# Elastic Constant Matrix: (Units=GPa)
#
#
# Indices 1 2 3 4 5 6 
#
# 1 93.4299 45.9458 45.9458 0.0000 0.0000 0.0000
# 2 45.9458 93.4299 45.9458 0.0000 0.0000 0.0000
# 3 45.9458 45.9458 93.4299 0.0000 0.0000 0.0000
# 4 0.0000 0.0000 0.0000 20.7720 0.0000 0.0000
# 5 0.0000 0.0000 0.0000 0.0000 20.7720 0.0000
# 6 0.0000 0.0000 0.0000 0.0000 0.0000 20.7720
#
#
#
# Elastic Compliance Matrix: (Units=1/GPa)
#
#
# Indices 1 2 3 4 5 6 
#
# 1 0.015838 -0.005221 -0.005221 0.000000 0.000000 0.000000
# 2 -0.005221 0.015838 -0.005221 0.000000 0.000000 0.000000
# 3 -0.005221 -0.005221 0.015838 0.000000 0.000000 0.000000
# 4 0.000000 0.000000 0.000000 0.048142 0.000000 0.000000
# 5 0.000000 0.000000 0.000000 0.000000 0.048142 0.000000
# 6 0.000000 0.000000 0.000000 0.000000 0.000000 0.048142
#
#
# Mechanical properties :
#
#
# Convention : Reuss Voigt Hill
#
# Bulk Modulus (GPa) = 61.77381 61.77381 61.77381
# Shear Modulus (GPa) = 21.86615 21.96002 21.91308
#
# Velocity S-wave (km/s) = 3.68439 3.69229 3.68834
# Velocity P-wave (km/s) = 7.51328 7.51845 7.51587
#
# Compressibility (1/GPa) = 0.01618809
#
# Stress axis : x y z
#
# Youngs Moduli (GPa) = 63.13753 63.13753 63.13753
#
# Poissons Ratio (x) = 0.32965 0.32965
# Poissons Ratio (y) = 0.32965 0.32965
# Poissons Ratio (z) = 0.32965 0.32965
#
# Static dielectric constant tensor:
#      x y z
#    x 1.533260 0.000000 0.000000 
#    y 0.000000 1.533260 0.000000 
#    z 0.000000 0.000000 1.533260 
# 
# From -- ./inp_files/542.got.cif
#   From: 2010.05.17/outbox.cif.g08.bks.cpg/sg205_cif.got.tgz:542.got - 2010.05.20 12:49:04.
