data_PCOD9590613
_publ_section_title
;
Structure prediction by ZEFSAII (Michael W. Deem and Ramdas Pophale) SiO2 
 PCOD9590613
Probable space group: I -4 3 M 
;
_chemical_formula_sum "Si O2"
_cell_formula_units_Z 312
_cell_length_a 27.354802
_cell_length_b 27.354802
_cell_length_c 27.354802
_cell_angle_alpha 90.000000
_cell_angle_beta 90.000000
_cell_angle_gamma 90.000000
_cell_volume 20469.193279
_symmetry_space_group_name_H-M "I -4 3 M "
_symmetry_group_IT_number 217
_symmetry_cell_setting 'cubic'
loop_
_space_group_symop_operation_xyz
x,y,z
y,-x,-z
-x,-y,z
-y,x,-z
-x,z,-y
x,-y,-z
-x,-z,y
-z,-y,x
-x,y,-z
z,-y,-x
z,x,y
y,z,x
-y,-z,x
z,-x,-y
-y,z,-x
-z,-x,y
-z,x,-y
y,-z,-x
-y,-x,z
y,x,z
x,-z,-y
x,z,y
-z,y,-x
z,y,x
1/2+x,1/2+y,1/2+z
1/2+y,1/2-x,1/2-z
1/2-x,1/2-y,1/2+z
1/2-y,1/2+x,1/2-z
1/2-x,1/2+z,1/2-y
1/2+x,1/2-y,1/2-z
1/2-x,1/2-z,1/2+y
1/2-z,1/2-y,1/2+x
1/2-x,1/2+y,1/2-z
1/2+z,1/2-y,1/2-x
1/2+z,1/2+x,1/2+y
1/2+y,1/2+z,1/2+x
1/2-y,1/2-z,1/2+x
1/2+z,1/2-x,1/2-y
1/2-y,1/2+z,1/2-x
1/2-z,1/2-x,1/2+y
1/2-z,1/2+x,1/2-y
1/2+y,1/2-z,1/2-x
1/2-y,1/2-x,1/2+z
1/2+y,1/2+x,1/2+z
1/2+x,1/2-z,1/2-y
1/2+x,1/2+z,1/2+y
1/2-z,1/2+y,1/2-x
1/2+z,1/2+y,1/2+x
loop_
_atom_site_type_symbol
_atom_site_label
_atom_site_fract_x
_atom_site_fract_y
_atom_site_fract_z
Si Si1 0.000000 0.500000 0.080479
Si Si2 0.005155 0.635385 0.285973
Si Si3 0.986106 0.796653 0.280940
Si Si4 0.112159 0.601897 0.968010
Si Si5 0.816947 0.102399 0.658982
Si Si6 0.094859 0.773235 0.400538
Si Si7 0.638813 0.166650 0.559520
O O1 0.019165 0.455068 0.112048
O O2 0.955919 0.484001 0.044082
O O3 0.019212 0.664443 0.335558
O O4 0.047399 0.603242 0.261664
O O5 0.994803 0.677370 0.245144
O O6 0.954975 0.605880 0.292174
O O7 0.989303 0.770590 0.229411
O O8 0.931934 0.815735 0.293329
O O9 0.027932 0.836264 0.290551
O O10 0.062636 0.611476 0.937364
O O11 0.156206 0.619495 0.933260
O O12 0.115624 0.631549 0.018132
O O13 0.849925 0.150076 0.664311
O O14 0.762786 0.113685 0.639476
O O15 0.086100 0.818206 0.364142
O O16 0.598633 0.181777 0.598633
#
# Coordination Sequence:
#
# PCOD9590613 Si02
#       7
#    24  48  48  48  48  48  48
#     4   9  16  26  40  57  82 116 142 169 220 275
#     4   9  17  29  42  56  77 106 139 177 221 265
#     4   8  16  31  48  65  86 111 139 173 216 265
#     4   9  18  31  44  61  86 114 148 186 224 273
#     4   9  17  30  48  67  85 111 146 182 222 264
#     4  10  19  29  41  59  82 110 142 180 222 270
#     4  10  19  30  46  67  86 110 146 186 229 271
#
# _framework density 15.242417
#
# number of rings (size 3 to 8) (size 9 to 14) (size 15 to 20)
#    0.000    2.846    0.000    2.308    0.000    3.692 
#    0.000    3.077    0.000    0.615    0.000    1.077 
#    0.000    0.000    0.000    0.000    0.000    0.000 
#
# Total GULP energy -869404.709047 kJ/mol
# GULP energy per Si atom -5573.107109 kJ/mol
# Density = 1.520773 g / cm^3
# Si number density = 15.242417 Si / 1000 Ang^3
#
#
#
# Elastic Constant Matrix: (Units=GPa)
#
#
# Indices 1 2 3 4 5 6 
#
# 1 49.8166 29.3857 29.3857 0.0000 0.0000 0.0000
# 2 29.3857 49.8166 29.3857 0.0000 0.0000 0.0000
# 3 29.3857 29.3857 49.8166 0.0000 0.0000 0.0000
# 4 0.0000 0.0000 0.0000 14.5339 0.0000 0.0000
# 5 0.0000 0.0000 0.0000 0.0000 14.5339 0.0000
# 6 0.0000 0.0000 0.0000 0.0000 0.0000 14.5339
#
#
#
# Elastic Compliance Matrix: (Units=1/GPa)
#
#
# Indices 1 2 3 4 5 6 
#
# 1 0.035700 -0.013245 -0.013245 0.000000 0.000000 0.000000
# 2 -0.013245 0.035700 -0.013245 0.000000 0.000000 0.000000
# 3 -0.013245 -0.013245 0.035700 0.000000 0.000000 0.000000
# 4 0.000000 0.000000 0.000000 0.068805 0.000000 0.000000
# 5 0.000000 0.000000 0.000000 0.000000 0.068805 0.000000
# 6 0.000000 0.000000 0.000000 0.000000 0.000000 0.068805
#
#
# Mechanical properties :
#
#
# Convention : Reuss Voigt Hill
#
# Bulk Modulus (GPa) = 36.19600 36.19600 36.19600
# Shear Modulus (GPa) = 12.43177 12.80653 12.61915
#
# Velocity S-wave (km/s) = 2.85898 2.90175 2.88044
# Velocity P-wave (km/s) = 5.89040 5.91822 5.90432
#
# Compressibility (1/GPa) = 0.02762736
#
# Stress axis : x y z
#
# Youngs Moduli (GPa) = 28.01126 28.01126 28.01126
#
# Poissons Ratio (x) = 0.37102 0.37102
# Poissons Ratio (y) = 0.37102 0.37102
# Poissons Ratio (z) = 0.37102 0.37102
#
# Static dielectric constant tensor:
#      x y z
#    x 1.514240 0.000000 0.000000 
#    y 0.000000 1.514240 0.000000 
#    z 0.000000 0.000000 1.514240 
# 
# From -- ./inp_files/754.got.cif
#   From: 2010.05.17/outbox.cif.g08.bks.cpg/sg217_cif.got.tgz:754.got - 2010.05.20 12:53:42.
