data_PCOD9590342
_publ_section_title
;
Structure prediction by ZEFSAII (Michael W. Deem and Ramdas Pophale) SiO2 
 PCOD9590342
Probable space group: P N 3
;
_chemical_formula_sum "Si O2"
_cell_formula_units_Z 168
_cell_length_a 21.919839
_cell_length_b 21.919839
_cell_length_c 21.919839
_cell_angle_alpha 90.000000
_cell_angle_beta 90.000000
_cell_angle_gamma 90.000000
_cell_volume 10532.029815
_symmetry_space_group_name_H-M "P N 3"
_symmetry_group_IT_number 201
_space_group.IT_coordinate_system_code '2'
_symmetry_cell_setting 'cubic'
loop_
_space_group_symop_operation_xyz
x,y,z
z,x,y
y,z,x
1/2-y,1/2-z,x
z,1/2-x,1/2-y
1/2-y,z,1/2-x
1/2-z,1/2-x,y
1/2-z,x,1/2-y
y,1/2-z,1/2-x
1/2-x,1/2-y,z
x,1/2-y,1/2-z
1/2-x,y,1/2-z
-x,-y,-z
-z,-x,-y
-y,-z,-x
1/2+y,1/2+z,-x
-z,1/2+x,1/2+y
1/2+y,-z,1/2+x
1/2+z,1/2+x,-y
1/2+z,-x,1/2+y
-y,1/2+z,1/2+x
1/2+x,1/2+y,-z
-x,1/2+y,1/2+z
1/2+x,-y,1/2+z
loop_
_atom_site_type_symbol
_atom_site_label
_atom_site_fract_x
_atom_site_fract_y
_atom_site_fract_z
Si Si1 0.547931 0.748985 0.650016
Si Si2 0.957520 0.858434 0.057769
Si Si3 0.551432 0.277720 0.447349
Si Si4 0.942231 0.141566 0.042480
Si Si5 0.396747 0.896747 0.000000
Si Si6 0.722280 0.051432 0.947349
Si Si7 0.547931 0.650016 0.748985
O O1 0.487975 0.724474 0.614725
O O2 0.569110 0.695935 0.695935
O O3 0.599297 0.761732 0.599297
O O4 0.535896 0.808374 0.691626
O O5 0.894250 0.894250 0.052111
O O6 0.951403 0.789415 0.080283
O O7 1.000000 0.897123 0.102877
O O8 0.992793 0.857558 0.992793
O O9 0.580283 0.210585 0.451403
O O10 0.595542 0.334292 0.461273
O O11 0.501017 0.281279 0.501017
O O12 0.452301 0.900904 0.047699
O O13 0.334292 0.904458 0.038727
O O14 0.724474 0.012025 0.885275
#
# Coordination Sequence:
#
# PCOD9590342 Si02
#       7
#    24  24  24  24  24  24  24
#     4  10  19  30  44  63  90 124 161 198 237 285
#     4   9  16  27  45  69  96 123 150 181 222 278
#     4   9  18  30  44  64  88 114 147 191 239 282
#     4   9  16  27  45  69  96 123 150 181 222 278
#     4  10  19  32  49  66  86 114 154 202 247 288
#     4   9  18  30  44  64  88 114 147 191 239 282
#     4  10  19  30  44  63  90 124 161 198 237 285
#
# _framework density 15.951340999999999
#
# number of rings (size 3 to 8) (size 9 to 14) (size 15 to 20)
#    0.000    2.571    0.000    2.714    0.000    1.143 
#    0.000    6.429    0.000    2.286    0.000    0.000 
#    0.000    0.000    0.000   34.857    0.000    0.000 
#
# Total GULP energy -935460.609261 kJ/mol
# GULP energy per Si atom -5568.217912 kJ/mol
# Density = 1.591503 g / cm^3
# Si number density = 15.951341 Si / 1000 Ang^3
#
#
#
# Elastic Constant Matrix: (Units=GPa)
#
#
# Indices 1 2 3 4 5 6 
#
# 1 90.4494 44.6598 44.6598 0.0000 0.0000 0.0000
# 2 44.6598 90.4494 44.6598 0.0000 0.0000 0.0000
# 3 44.6598 44.6598 90.4494 0.0000 0.0000 0.0000
# 4 0.0000 0.0000 0.0000 21.7722 0.0000 0.0000
# 5 0.0000 0.0000 0.0000 0.0000 21.7722 0.0000
# 6 0.0000 0.0000 0.0000 0.0000 0.0000 21.7722
#
#
#
# Elastic Compliance Matrix: (Units=1/GPa)
#
#
# Indices 1 2 3 4 5 6 
#
# 1 0.016414 -0.005425 -0.005425 0.000000 0.000000 0.000000
# 2 -0.005425 0.016414 -0.005425 0.000000 0.000000 0.000000
# 3 -0.005425 -0.005425 0.016414 0.000000 0.000000 0.000000
# 4 0.000000 0.000000 0.000000 0.045930 0.000000 0.000000
# 5 0.000000 0.000000 0.000000 0.000000 0.045930 0.000000
# 6 0.000000 0.000000 0.000000 0.000000 0.000000 0.045930
#
#
# Mechanical properties :
#
#
# Convention : Reuss Voigt Hill
#
# Bulk Modulus (GPa) = 59.92298 59.92298 59.92298
# Shear Modulus (GPa) = 22.20778 22.22125 22.21451
#
# Velocity S-wave (km/s) = 3.73529 3.73643 3.73586
# Velocity P-wave (km/s) = 7.50006 7.50081 7.50044
#
# Compressibility (1/GPa) = 0.01668809
#
# Stress axis : x y z
#
# Youngs Moduli (GPa) = 60.92512 60.92512 60.92512
#
# Poissons Ratio (x) = 0.33055 0.33055
# Poissons Ratio (y) = 0.33055 0.33055
# Poissons Ratio (z) = 0.33055 0.33055
#
# Static dielectric constant tensor:
#      x y z
#    x 1.541360 0.000000 0.000000 
#    y 0.000000 1.541360 0.000000 
#    z 0.000000 0.000000 1.541360 
# 
# From -- ./inp_files/746.got.cif
#   From: 2010.05.17/outbox.cif.g08.bks.cpg/sg201_cif.got.tgz:746.got - 2010.05.20 12:48:03.
