data_PCOD9590328
_publ_section_title
;
Structure prediction by ZEFSAII (Michael W. Deem and Ramdas Pophale) SiO2 
 PCOD9590328
Probable space group: I 21 3
;
_chemical_formula_sum "Si O2"
_cell_formula_units_Z 104
_cell_length_a 16.878036
_cell_length_b 16.878036
_cell_length_c 16.878036
_cell_angle_alpha 90.000000
_cell_angle_beta 90.000000
_cell_angle_gamma 90.000000
_cell_volume 4808.014034
_symmetry_space_group_name_H-M "I 21 3"
_symmetry_group_IT_number 199
_symmetry_cell_setting 'cubic'
loop_
_space_group_symop_operation_xyz
x,y,z
z,x,y
y,z,x
-y,1/2-z,x
z,-x,1/2-y
1/2-y,z,-x
-z,1/2-x,y
1/2-z,x,-y
y,-z,1/2-x
-x,1/2-y,z
x,-y,1/2-z
1/2-x,y,-z
1/2+x,1/2+y,1/2+z
1/2+z,1/2+x,1/2+y
1/2+y,1/2+z,1/2+x
1/2-y,-z,1/2+x
1/2+z,1/2-x,-y
-y,1/2+z,1/2-x
1/2-z,-x,1/2+y
-z,1/2+x,1/2-y
1/2+y,1/2-z,-x
1/2-x,-y,1/2+z
1/2+x,1/2-y,-z
-x,1/2+y,1/2-z
loop_
_atom_site_type_symbol
_atom_site_label
_atom_site_fract_x
_atom_site_fract_y
_atom_site_fract_z
Si Si1 0.008234 0.508234 0.991768
Si Si2 0.367068 0.132934 0.867067
Si Si3 0.373380 0.977017 0.379975
Si Si4 0.241769 0.241769 0.241769
Si Si5 0.750000 0.175650 0.500000
Si Si6 0.750000 0.574351 0.500000
Si Si7 0.617070 0.117069 0.382932
Si Si8 0.772982 0.876621 0.629975
O O1 0.062554 0.562553 0.937448
O O2 0.948582 0.461117 0.935567
O O3 0.312551 0.187451 0.812550
O O4 0.449200 0.182197 0.879161
O O5 0.296558 0.975418 0.434614
O O6 0.365366 0.912179 0.311342
O O7 0.384634 0.061341 0.337819
O O8 0.288885 0.301421 0.185568
O O9 0.699201 0.129163 0.432195
O O10 0.684612 0.225418 0.546555
#
# Coordination Sequence:
#
# PCOD9590328 Si02
#       8
#     8   8  24   8  12  12   8  24
#     4  12  25  47  73 106 149 190 244 302 370 442
#     4  12  28  47  79 106 152 193 250 311 376 451
#     4  11  26  46  73 105 145 191 242 304 368 437
#     4  12  25  47  73 106 149 190 244 302 370 442
#     4  12  26  48  75 109 144 194 248 300 374 451
#     4  12  26  48  75 109 144 194 248 300 374 451
#     4  12  28  47  79 106 152 193 250 311 376 451
#     4  11  26  46  73 105 145 191 242 304 368 437
#
# _framework density 21.630552999999999
#
# number of rings (size 3 to 8) (size 9 to 14) (size 15 to 20)
#    0.000    0.462    4.615    2.769    6.462    3.692 
#    0.000    2.308    0.000    0.000    0.000    0.000 
#    0.000    0.000    0.000    0.000    0.000    0.000 
#
# Total GULP energy -290777.382675 kJ/mol
# GULP energy per Si atom -5591.872744 kJ/mol
# Density = 2.158132 g / cm^3
# Si number density = 21.630553 Si / 1000 Ang^3
#
#
#
# Elastic Constant Matrix: (Units=GPa)
#
#
# Indices 1 2 3 4 5 6 
#
# 1 95.3615 35.4892 35.4887 0.0000 0.0000 0.0000
# 2 35.4892 95.3565 35.4897 0.0000 0.0000 0.0000
# 3 35.4887 35.4897 95.3569 0.0000 0.0000 0.0000
# 4 0.0000 0.0000 0.0000 25.8683 0.0000 0.0000
# 5 0.0000 0.0000 0.0000 0.0000 25.8687 0.0000
# 6 0.0000 0.0000 0.0000 0.0000 0.0000 25.8686
#
#
#
# Elastic Compliance Matrix: (Units=1/GPa)
#
#
# Indices 1 2 3 4 5 6 
#
# 1 0.013139 -0.003564 -0.003564 0.000000 0.000000 0.000000
# 2 -0.003564 0.013140 -0.003564 0.000000 0.000000 0.000000
# 3 -0.003564 -0.003564 0.013140 0.000000 0.000000 0.000000
# 4 0.000000 0.000000 0.000000 0.038657 0.000000 0.000000
# 5 0.000000 0.000000 0.000000 0.000000 0.038657 0.000000
# 6 0.000000 0.000000 0.000000 0.000000 0.000000 0.038657
#
#
# Mechanical properties :
#
#
# Convention : Reuss Voigt Hill
#
# Bulk Modulus (GPa) = 55.44559 55.44559 55.44559
# Shear Modulus (GPa) = 27.35477 27.49493 27.42485
#
# Velocity S-wave (km/s) = 3.56003 3.56914 3.56459
# Velocity P-wave (km/s) = 6.52588 6.53251 6.52919
#
# Compressibility (1/GPa) = 0.01803570
#
# Stress axis : x y z
#
# Youngs Moduli (GPa) = 76.11040 76.10506 76.10579
#
# Poissons Ratio (x) = 0.27121 0.27120
# Poissons Ratio (y) = 0.27123 0.27124
# Poissons Ratio (z) = 0.27122 0.27124
#
# Static dielectric constant tensor:
#      x y z
#    x 1.777920 0.000000 0.000000 
#    y 0.000000 1.777930 0.000000 
#    z 0.000000 0.000000 1.777930 
# 
# From -- ./inp_files/620.got.cif
#   From: 2010.05.17/outbox.cif.g08.bks.cpg/sg199_cif.got.tgz:620.got - 2010.05.20 12:47:21.
