data_PCOD9590509
_publ_section_title
;
Structure prediction by ZEFSAII (Michael W. Deem and Ramdas Pophale) SiO2 
 PCOD9590509
Probable space group: I 4 3 2
;
_chemical_formula_sum "Si O2"
_cell_formula_units_Z 352
_cell_length_a 26.147751
_cell_length_b 26.147751
_cell_length_c 26.147751
_cell_angle_alpha 90.000000
_cell_angle_beta 90.000000
_cell_angle_gamma 90.000000
_cell_volume 17877.345021
_symmetry_space_group_name_H-M "I 4 3 2"
_symmetry_group_IT_number 211
_symmetry_cell_setting 'cubic'
loop_
_space_group_symop_operation_xyz
x,y,z
-y,x,z
-x,-y,z
y,-x,z
x,-z,y
x,-y,-z
x,z,-y
z,y,-x
-x,y,-z
-z,y,x
z,x,y
y,z,x
-y,-z,x
z,-x,-y
-y,z,-x
-z,-x,y
-z,x,-y
y,-z,-x
y,x,-z
-y,-x,-z
-x,z,y
-x,-z,-y
z,-y,x
-z,-y,-x
1/2+x,1/2+y,1/2+z
1/2-y,1/2+x,1/2+z
1/2-x,1/2-y,1/2+z
1/2+y,1/2-x,1/2+z
1/2+x,1/2-z,1/2+y
1/2+x,1/2-y,1/2-z
1/2+x,1/2+z,1/2-y
1/2+z,1/2+y,1/2-x
1/2-x,1/2+y,1/2-z
1/2-z,1/2+y,1/2+x
1/2+z,1/2+x,1/2+y
1/2+y,1/2+z,1/2+x
1/2-y,1/2-z,1/2+x
1/2+z,1/2-x,1/2-y
1/2-y,1/2+z,1/2-x
1/2-z,1/2-x,1/2+y
1/2-z,1/2+x,1/2-y
1/2+y,1/2-z,1/2-x
1/2+y,1/2+x,1/2-z
1/2-y,1/2-x,1/2-z
1/2-x,1/2+z,1/2+y
1/2-x,1/2-z,1/2-y
1/2+z,1/2-y,1/2+x
1/2-z,1/2-y,1/2-x
loop_
_atom_site_type_symbol
_atom_site_label
_atom_site_fract_x
_atom_site_fract_y
_atom_site_fract_z
Si Si1 0.140407 0.621000 0.309424
Si Si2 0.284730 0.715272 0.715272
Si Si3 0.973939 0.403180 0.878789
Si Si4 0.744475 0.431873 0.667512
Si Si5 0.248686 0.107712 0.174255
Si Si6 0.300465 0.602603 0.146468
Si Si7 0.379431 0.948676 0.423671
Si Si8 0.209597 0.415007 0.504547
O O1 0.130904 0.630904 0.250000
O O2 0.192959 0.589086 0.317859
O O3 0.152559 0.670858 0.343172
O O4 0.089676 0.599714 0.337186
O O5 0.250000 0.750000 0.750000
O O6 0.340700 0.739968 0.708141
O O7 0.936136 0.388726 0.832546
O O8 0.935685 0.423236 0.921899
O O9 0.996439 0.348799 0.895743
O O10 0.016369 0.445296 0.866454
O O11 0.740097 0.383215 0.628505
O O12 0.696909 0.429686 0.705765
O O13 0.796814 0.421570 0.699873
O O14 0.754654 0.481554 0.632855
O O15 0.250000 0.616972 0.116972
O O16 0.390369 0.000000 0.390369
O O17 0.217098 0.448057 0.454027
#
# Coordination Sequence:
#
# PCOD9590509 Si02
#       8
#    48  16  48  48  48  48  48  48
#     4  10  20  35  56  78 113 153 193 232 285 356
#     4   9  15  24  45  84 105 135 183 240 276 318
#     4  10  20  37  60  82 107 138 183 244 301 359
#     4   9  18  31  52  82 121 151 195 245 290 345
#     4   9  17  29  50  79 113 152 185 234 288 333
#     4   9  18  33  56  84 113 149 192 243 293 354
#     4  11  23  40  59  82 110 139 190 251 302 353
#     4  10  19  34  59  84 112 148 187 239 309 367
#
# _framework density 19.689724999999999
#
# number of rings (size 3 to 8) (size 9 to 14) (size 15 to 20)
#    0.000    2.318    1.364    2.727    0.000    4.091 
#    4.909    1.364    0.000    0.273    0.000    0.000 
#    0.000    0.000    0.000    0.000    0.000    0.000 
#
# Total GULP energy -980923.981706 kJ/mol
# GULP energy per Si atom -5573.431714 kJ/mol
# Density = 1.964491 g / cm^3
# Si number density = 19.689725 Si / 1000 Ang^3
#
#
#
# Elastic Constant Matrix: (Units=GPa)
#
#
# Indices 1 2 3 4 5 6 
#
# 1 74.6605 40.5077 40.5079 0.0000 0.0000 0.0000
# 2 40.5077 74.6605 40.5079 0.0000 0.0000 0.0000
# 3 40.5079 40.5079 74.6599 0.0000 0.0000 0.0000
# 4 0.0000 0.0000 0.0000 17.7221 0.0000 0.0000
# 5 0.0000 0.0000 0.0000 0.0000 17.7221 0.0000
# 6 0.0000 0.0000 0.0000 0.0000 0.0000 17.7225
#
#
#
# Elastic Compliance Matrix: (Units=1/GPa)
#
#
# Indices 1 2 3 4 5 6 
#
# 1 0.021661 -0.007619 -0.007619 0.000000 0.000000 0.000000
# 2 -0.007619 0.021661 -0.007619 0.000000 0.000000 0.000000
# 3 -0.007619 -0.007619 0.021662 0.000000 0.000000 0.000000
# 4 0.000000 0.000000 0.000000 0.056427 0.000000 0.000000
# 5 0.000000 0.000000 0.000000 0.000000 0.056427 0.000000
# 6 0.000000 0.000000 0.000000 0.000000 0.000000 0.056426
#
#
# Mechanical properties :
#
#
# Convention : Reuss Voigt Hill
#
# Bulk Modulus (GPa) = 51.89198 51.89198 51.89198
# Shear Modulus (GPa) = 17.45804 17.46382 17.46093
#
# Velocity S-wave (km/s) = 2.98091 2.98140 2.98116
# Velocity P-wave (km/s) = 6.18545 6.18577 6.18561
#
# Compressibility (1/GPa) = 0.01927080
#
# Stress axis : x y z
#
# Youngs Moduli (GPa) = 46.16511 46.16511 46.16435
#
# Poissons Ratio (x) = 0.35172 0.35173
# Poissons Ratio (y) = 0.35172 0.35173
# Poissons Ratio (z) = 0.35173 0.35173
#
# Static dielectric constant tensor:
#      x y z
#    x 1.732370 0.000000 0.000000 
#    y 0.000000 1.732370 0.000000 
#    z 0.000000 0.000000 1.732380 
# 
# From -- ./inp_files/849.got.cif
#   From: 2010.05.17/outbox.cif.g08.bks.cpg/sg211_cif.got.tgz:849.got - 2010.05.20 12:51:03.
