data_PCOD9590268
_publ_section_title
;
Structure prediction by ZEFSAII (Michael W. Deem and Ramdas Pophale) SiO2 
 PCOD9590268
Probable space group: I 2 3
;
_chemical_formula_sum "Si O2"
_cell_formula_units_Z 118
_cell_length_a 17.535796
_cell_length_b 17.535796
_cell_length_c 17.535796
_cell_angle_alpha 90.000000
_cell_angle_beta 90.000000
_cell_angle_gamma 90.000000
_cell_volume 5392.329892
_symmetry_space_group_name_H-M "I 2 3"
_symmetry_group_IT_number 197
_symmetry_cell_setting 'cubic'
loop_
_space_group_symop_operation_xyz
x,y,z
z,x,y
y,z,x
-y,-z,x
z,-x,-y
-y,z,-x
-z,-x,y
-z,x,-y
y,-z,-x
-x,-y,z
x,-y,-z
-x,y,-z
1/2+x,1/2+y,1/2+z
1/2+z,1/2+x,1/2+y
1/2+y,1/2+z,1/2+x
1/2-y,1/2-z,1/2+x
1/2+z,1/2-x,1/2-y
1/2-y,1/2+z,1/2-x
1/2-z,1/2-x,1/2+y
1/2-z,1/2+x,1/2-y
1/2+y,1/2-z,1/2-x
1/2-x,1/2-y,1/2+z
1/2+x,1/2-y,1/2-z
1/2-x,1/2+y,1/2-z
loop_
_atom_site_type_symbol
_atom_site_label
_atom_site_fract_x
_atom_site_fract_y
_atom_site_fract_z
Si Si1 0.314105 0.500000 0.000000
Si Si2 0.075846 0.047656 0.636345
Si Si3 0.772024 0.307877 0.828117
Si Si4 0.500000 0.500000 0.500000
Si Si5 0.105862 0.105862 0.894139
Si Si6 0.855469 0.495574 0.289835
Si Si7 0.945251 0.756981 0.804808
O O1 0.367529 0.530090 0.932609
O O2 0.260725 0.572176 0.018042
O O3 0.123193 0.024059 0.710937
O O4 0.046299 0.134297 0.640869
O O5 0.000000 0.000000 0.626756
O O6 0.721343 0.230438 0.837408
O O7 0.801266 0.349636 0.903789
O O8 0.715954 0.364462 0.782253
O O9 0.553395 0.553395 0.446606
O O10 0.155440 0.168877 0.939401
O O11 0.774783 0.511995 0.250134
#
# Coordination Sequence:
#
# PCOD9590268 Si02
#       7
#    12  24  24   2   8  24  24
#     4  12  31  50  77 106 166 206 274 325 416 478
#     4  12  30  47  74 116 160 209 260 342 396 486
#     4  10  22  46  79 111 143 196 265 322 386 494
#     4  12  36  48  96 112 176 202 288 348 408 504
#     4  12  24  57  72 121 149 208 264 339 411 480
#     4  12  29  48  80 114 155 213 267 333 411 488
#     4  12  24  49  83 104 156 206 262 325 408 484
#
# _framework density 21.882933999999999
#
# number of rings (size 3 to 8) (size 9 to 14) (size 15 to 20)
#    0.407    0.000    6.102    0.305   12.814    0.000 
#    0.000    0.000    0.000    0.000    0.000    0.000 
#    0.000    0.000    0.000    0.000    0.000    0.000 
#
# Total GULP energy -329616.076348 kJ/mol
# GULP energy per Si atom -5586.713158 kJ/mol
# Density = 2.183313 g / cm^3
# Si number density = 21.882934 Si / 1000 Ang^3
#
#
#
# Elastic Constant Matrix: (Units=GPa)
#
#
# Indices 1 2 3 4 5 6 
#
# 1 75.8303 43.2956 43.2951 0.0000 0.0000 0.0000
# 2 43.2956 75.8312 43.2955 0.0000 0.0000 0.0000
# 3 43.2951 43.2955 75.8311 0.0000 0.0000 0.0000
# 4 0.0000 0.0000 0.0000 66.4945 0.0000 0.0000
# 5 0.0000 0.0000 0.0000 0.0000 66.5223 0.0000
# 6 0.0000 0.0000 0.0000 0.0000 0.0000 66.5079
#
#
#
# Elastic Compliance Matrix: (Units=1/GPa)
#
#
# Indices 1 2 3 4 5 6 
#
# 1 0.022543 -0.008193 -0.008193 0.000000 0.000000 0.000000
# 2 -0.008193 0.022543 -0.008193 0.000000 0.000000 0.000000
# 3 -0.008193 -0.008193 0.022543 0.000000 0.000000 0.000000
# 4 0.000000 0.000000 0.000000 0.015039 0.000000 0.000000
# 5 0.000000 0.000000 0.000000 0.000000 0.015033 0.000000
# 6 0.000000 0.000000 0.000000 0.000000 0.000000 0.015036
#
#
# Mechanical properties :
#
#
# Convention : Reuss Voigt Hill
#
# Bulk Modulus (GPa) = 54.14054 54.14054 54.14054
# Shear Modulus (GPa) = 29.75307 46.41202 38.08254
#
# Velocity S-wave (km/s) = 3.69134 4.61034 4.17620
# Velocity P-wave (km/s) = 6.55459 7.28938 6.93173
#
# Compressibility (1/GPa) = 0.01847045
#
# Stress axis : x y z
#
# Youngs Moduli (GPa) = 44.35980 44.36027 44.36058
#
# Poissons Ratio (x) = 0.36345 0.36344
# Poissons Ratio (y) = 0.36345 0.36344
# Poissons Ratio (z) = 0.36343 0.36344
#
# Static dielectric constant tensor:
#      x y z
#    x 1.827410 0.000000 0.000000 
#    y 0.000000 1.827410 0.000000 
#    z 0.000000 0.000000 1.827410 
# 
# From -- ./inp_files/642.got.cif
#   From: 2010.05.17/outbox.cif.g08.bks.cpg/sg197_cif.got.tgz:642.got - 2010.05.20 12:46:46.
