data_PCOD9590702
_publ_section_title
;
Structure prediction by ZEFSAII (Michael W. Deem and Ramdas Pophale) SiO2 
 PCOD9590702
Probable space group: P M 3 M
;
_chemical_formula_sum "Si O2"
_cell_formula_units_Z 216
_cell_length_a 24.737429
_cell_length_b 24.737429
_cell_length_c 24.737429
_cell_angle_alpha 90.000000
_cell_angle_beta 90.000000
_cell_angle_gamma 90.000000
_cell_volume 15137.832037
_symmetry_space_group_name_H-M "P M 3 M"
_symmetry_group_IT_number 221
_symmetry_cell_setting 'cubic'
loop_
_space_group_symop_operation_xyz
x,y,z
-y,x,z
-x,-y,z
y,-x,z
x,-z,y
x,-y,-z
x,z,-y
z,y,-x
-x,y,-z
-z,y,x
z,x,y
y,z,x
-y,-z,x
z,-x,-y
-y,z,-x
-z,-x,y
-z,x,-y
y,-z,-x
y,x,-z
-y,-x,-z
-x,z,y
-x,-z,-y
z,-y,x
-z,-y,-x
-x,-y,-z
y,-x,-z
x,y,-z
-y,x,-z
-x,z,-y
-x,y,z
-x,-z,y
-z,-y,x
x,-y,z
z,-y,-x
-z,-x,-y
-y,-z,-x
y,z,-x
-z,x,y
y,-z,x
z,x,-y
z,-x,y
-y,z,x
-y,-x,z
y,x,z
x,-z,-y
x,z,y
-z,y,-x
z,y,x
loop_
_atom_site_type_symbol
_atom_site_label
_atom_site_fract_x
_atom_site_fract_y
_atom_site_fract_z
Si Si1 0.635592 0.187573 0.275258
Si Si2 0.353543 0.000000 0.187410
Si Si3 0.713788 0.000000 0.562493
Si Si4 0.290308 0.111061 0.200363
Si Si5 0.000000 0.561465 0.909060
Si Si6 0.347306 0.886317 0.437048
O O1 0.619684 0.237733 0.237733
O O2 0.678967 0.204485 0.321034
O O3 0.667107 0.144701 0.237205
O O4 0.587107 0.156630 0.304718
O O5 0.316552 0.053284 0.188255
O O6 0.393226 0.000000 0.136152
O O7 0.392991 0.000000 0.239416
O O8 0.678308 0.053956 0.569388
O O9 0.734224 0.000000 0.500000
O O10 0.280891 0.147036 0.147036
O O11 0.236308 0.105923 0.236308
O O12 0.000000 0.500000 0.886778
O O13 0.052027 0.566558 0.947974
O O14 0.357618 0.877039 0.500000
O O15 0.400655 0.882833 0.400655
#
# Coordination Sequence:
#
# PCOD9590702 Si02
#       6
#    48  24  24  48  24  48
#     4   9  17  30  47  67  91 119 147 177 220 273
#     4  12  19  30  51  74  91 113 161 198 231 268
#     4  10  20  32  45  63  91 119 145 188 237 271
#     4  10  20  32  47  68  94 122 150 186 231 279
#     4   9  19  35  50  65  94 134 166 195 233 274
#     4  10  20  33  48  65  87 116 149 187 229 270
#
# _framework density 14.268886
#
# number of rings (size 3 to 8) (size 9 to 14) (size 15 to 20)
#    0.000    2.111    2.222    2.444    0.000    3.333 
#    0.000    0.000    0.000    2.000    0.000    0.000 
#    0.000    0.000    0.000    0.000    0.000    0.000 
#
# Total GULP energy -1204776.054440 kJ/mol
# GULP energy per Si atom -5577.666919 kJ/mol
# Density = 1.423641 g / cm^3
# Si number density = 14.268886 Si / 1000 Ang^3
#
#
#
# Elastic Constant Matrix: (Units=GPa)
#
#
# Indices 1 2 3 4 5 6 
#
# 1 109.5299 68.9407 68.9407 0.0000 0.0000 0.0000
# 2 68.9407 109.5299 68.9407 0.0000 0.0000 0.0000
# 3 68.9407 68.9407 109.5299 0.0000 0.0000 0.0000
# 4 0.0000 0.0000 0.0000 19.2926 0.0000 0.0000
# 5 0.0000 0.0000 0.0000 0.0000 19.2926 0.0000
# 6 0.0000 0.0000 0.0000 0.0000 0.0000 19.2926
#
#
#
# Elastic Compliance Matrix: (Units=1/GPa)
#
#
# Indices 1 2 3 4 5 6 
#
# 1 0.017772 -0.006865 -0.006865 0.000000 0.000000 0.000000
# 2 -0.006865 0.017772 -0.006865 0.000000 0.000000 0.000000
# 3 -0.006865 -0.006865 0.017772 0.000000 0.000000 0.000000
# 4 0.000000 0.000000 0.000000 0.051833 0.000000 0.000000
# 5 0.000000 0.000000 0.000000 0.000000 0.051833 0.000000
# 6 0.000000 0.000000 0.000000 0.000000 0.000000 0.051833
#
#
# Mechanical properties :
#
#
# Convention : Reuss Voigt Hill
#
# Bulk Modulus (GPa) = 82.47042 82.47042 82.47042
# Shear Modulus (GPa) = 19.68130 19.69341 19.68736
#
# Velocity S-wave (km/s) = 3.71794 3.71909 3.71852
# Velocity P-wave (km/s) = 8.73806 8.73871 8.73838
#
# Compressibility (1/GPa) = 0.01212556
#
# Stress axis : x y z
#
# Youngs Moduli (GPa) = 56.26828 56.26828 56.26828
#
# Poissons Ratio (x) = 0.38629 0.38629
# Poissons Ratio (y) = 0.38629 0.38629
# Poissons Ratio (z) = 0.38629 0.38629
#
# Static dielectric constant tensor:
#      x y z
#    x 1.454110 0.000000 0.000000 
#    y 0.000000 1.454110 0.000000 
#    z 0.000000 0.000000 1.454110 
# 
# From -- ./inp_files/728.got.cif
#   From: 2010.05.17/outbox.cif.g08.bks.cpg/sg221_cif.got.tgz:728.got - 2010.05.20 12:54:48.
