data_PCOD9590078
_publ_section_title
;
Structure prediction by ZEFSAII (Michael W. Deem and Ramdas Pophale) SiO2 
 PCOD9590078
Probable space group: P 63/M M C
;
_chemical_formula_sum "Si O2"
_cell_formula_units_Z 100
_cell_length_a 27.108777
_cell_length_b 27.108777
_cell_length_c 8.877265
_cell_angle_alpha 90.000000
_cell_angle_beta 90.000000
_cell_angle_gamma 120.000000
_cell_volume 5649.755664
_symmetry_space_group_name_H-M "P 63/M M C"
_symmetry_group_IT_number 194
_symmetry_cell_setting 'hexagonal'
loop_
_space_group_symop_operation_xyz
x,y,z
x-y,x,1/2+z
-y,x-y,z
-x,-y,1/2+z
-x+y,-x,z
y,-x+y,1/2+z
x-y,-y,-z
-x,-x+y,-z
y,x,-z
-y,-x,1/2-z
-x+y,y,1/2-z
x,x-y,1/2-z
-x,-y,-z
-x+y,-x,1/2-z
y,-x+y,-z
x,y,1/2-z
x-y,x,-z
-y,x-y,1/2-z
-x+y,y,z
x,x-y,z
-y,-x,z
y,x,1/2+z
x-y,-y,1/2+z
-x,-x+y,1/2+z
loop_
_atom_site_type_symbol
_atom_site_label
_atom_site_fract_x
_atom_site_fract_y
_atom_site_fract_z
Si Si1 0.333334 0.666667 0.429825
Si Si2 0.335783 0.862938 0.931213
Si Si3 0.468229 0.936458 0.567329
Si Si4 0.172886 0.233218 0.431280
Si Si5 0.458796 0.729398 0.932412
Si Si6 0.238920 0.875596 0.431200
O O1 0.333334 0.666667 0.250000
O O2 0.301400 0.602799 0.493330
O O3 0.334554 0.863942 0.750000
O O4 0.401644 0.899883 0.978093
O O5 0.304353 0.796136 0.976109
O O6 0.297177 0.887225 0.996201
O O7 0.470251 0.940501 0.750000
O O8 0.500000 0.000000 0.500000
O O9 0.190683 0.190683 0.500000
O O10 0.173570 0.231088 0.250000
O O11 0.110826 0.221651 0.477688
O O12 0.217668 0.298406 0.475913
O O13 0.453273 0.726637 0.750000
O O14 0.243272 0.876434 0.250000
O O15 0.187409 0.812592 0.474402
#
# Coordination Sequence:
#
# PCOD9590078 Si02
#       6
#     4  24  12  24  12  24
#     4  12  25  35  49  78 109 137 178 222 271 347
#     4  10  20  36  59  80 100 134 182 225 267 322
#     4  10  23  40  54  74 105 142 182 220 260 318
#     4   9  19  35  54  80 113 147 179 216 264 310
#     4  10  20  37  59  80 105 137 173 228 287 325
#     4   9  18  33  53  78 110 139 166 212 271 321
#
# _framework density 17.69988
#
# number of rings (size 3 to 8) (size 9 to 14) (size 15 to 20)
#    0.000    2.400    1.200    2.520    0.000    6.240 
#    0.000    8.400    0.000    0.240    0.000    0.000 
#    0.000    0.000    0.000    0.000    0.000    0.000 
#
# Total GULP energy -557944.053678 kJ/mol
# GULP energy per Si atom -5579.440537 kJ/mol
# Density = 1.765959 g / cm^3
# Si number density = 17.699880 Si / 1000 Ang^3
#
#
#
# Elastic Constant Matrix: (Units=GPa)
#
#
# Indices 1 2 3 4 5 6 
#
# 1 148.0404 103.9671 33.8956 0.0000 0.0000 0.0000
# 2 103.9671 148.0403 33.8956 0.0000 0.0000 0.0000
# 3 33.8956 33.8956 5.9026 0.0000 0.0000 0.0000
# 4 0.0000 0.0000 0.0000 30.2707 0.0000 0.0000
# 5 0.0000 0.0000 0.0000 0.0000 30.2708 0.0000
# 6 0.0000 0.0000 0.0000 0.0000 0.0000 22.0366
#
#
#
# Elastic Compliance Matrix: (Units=1/GPa)
#
#
# Indices 1 2 3 4 5 6 
#
# 1 0.007703 -0.014987 0.041830 0.000000 0.000000 0.000000
# 2 -0.014987 0.007703 0.041830 0.000000 0.000000 0.000000
# 3 0.041830 0.041830 -0.310996 0.000000 0.000000 0.000000
# 4 0.000000 0.000000 0.000000 0.033035 0.000000 0.000000
# 5 0.000000 0.000000 0.000000 0.000000 0.033035 0.000000
# 6 0.000000 0.000000 0.000000 0.000000 0.000000 0.045379
#
#
# Mechanical properties :
#
#
# Convention : Reuss Voigt Hill
#
# Bulk Modulus (GPa) = -6.31929 71.72222 32.70147
# Shear Modulus (GPa) = -13.36058 25.19728 5.91835
#
# Velocity S-wave (km/s) = -2.75042 3.77714 1.83057
# Velocity P-wave (km/s) = 3.69654 7.72215 4.79412
#
# Compressibility (1/GPa) = -0.15824573
#
# Stress axis : x y z
#
# Youngs Moduli (GPa) = 129.82658 129.82561 -3.21547
#
# Poissons Ratio (x) = 1.94568 0.13450
# Poissons Ratio (y) = 1.94570 0.13450
# Poissons Ratio (z) = -5.43063 -5.43056
#
# Static dielectric constant tensor:
#      x y z
#    x 1.595150 0.000000 0.000000 
#    y 0.000000 1.595160 0.000000 
#    z 0.000000 0.000000 1.594360 
# 
# From -- ./inp_files/1673.got.cif
#   From: 2010.05.17/outbox.cif.g08.bks.cpg/sg194_1_cif.got.tgz:1673.got - 2010.05.20 12:39:09.
