data_PCOD9590130
_publ_section_title
;
Structure prediction by ZEFSAII (Michael W. Deem and Ramdas Pophale) SiO2 
 PCOD9590130
Probable space group: P 63/M M C
;
_chemical_formula_sum "Si O2"
_cell_formula_units_Z 144
_cell_length_a 21.617338
_cell_length_b 21.617338
_cell_length_c 20.892281
_cell_angle_alpha 90.000000
_cell_angle_beta 90.000000
_cell_angle_gamma 120.000000
_cell_volume 8455.142204
_symmetry_space_group_name_H-M "P 63/M M C"
_symmetry_group_IT_number 194
_symmetry_cell_setting 'hexagonal'
loop_
_space_group_symop_operation_xyz
x,y,z
x-y,x,1/2+z
-y,x-y,z
-x,-y,1/2+z
-x+y,-x,z
y,-x+y,1/2+z
x-y,-y,-z
-x,-x+y,-z
y,x,-z
-y,-x,1/2-z
-x+y,y,1/2-z
x,x-y,1/2-z
-x,-y,-z
-x+y,-x,1/2-z
y,-x+y,-z
x,y,1/2-z
x-y,x,-z
-y,x-y,1/2-z
-x+y,y,z
x,x-y,z
-y,-x,z
y,x,1/2+z
x-y,-y,1/2+z
-x,-x+y,1/2+z
loop_
_atom_site_type_symbol
_atom_site_label
_atom_site_fract_x
_atom_site_fract_y
_atom_site_fract_z
Si Si1 0.246466 0.049712 0.675652
Si Si2 0.800083 0.746270 0.059807
Si Si3 0.387454 0.465442 0.065897
Si Si4 0.666758 0.185983 0.324284
Si Si5 0.584123 0.718505 0.177064
Si Si6 0.413436 0.082063 0.068676
O O1 0.231283 0.026826 0.750000
O O2 0.234574 0.117287 0.667353
O O3 0.331310 0.080885 0.664633
O O4 0.203766 0.988627 0.624388
O O5 0.876752 0.753504 0.050351
O O6 0.739958 0.663051 0.065998
O O7 0.778265 0.778265 0.000000
O O8 0.461860 0.538141 0.061172
O O9 0.340662 0.462377 0.125957
O O10 0.402068 0.399509 0.074898
O O11 0.343625 0.451460 0.000166
O O12 0.666688 0.164463 0.250000
O O13 0.594444 0.188888 0.334482
O O14 0.735995 0.264006 0.332700
O O15 0.670131 0.131395 0.373835
O O16 0.569450 0.691789 0.250000
O O17 0.573676 0.786838 0.172654
#
# Coordination Sequence:
#
# PCOD9590130 Si02
#       6
#    24  24  24  24  24  24
#     4   9  18  36  60  84 113 147 184 228 273 323
#     4  12  23  37  59  86 115 147 184 230 282 331
#     4  11  21  35  56  80 113 150 184 230 285 340
#     4  10  21  37  56  78 108 148 190 229 273 330
#     4   9  18  34  57  83 111 144 186 234 279 330
#     4  11  21  38  53  80 112 146 187 234 281 330
#
# _framework density 17.031056
#
# number of rings (size 3 to 8) (size 9 to 14) (size 15 to 20)
#    0.000    1.667    3.333    4.167    0.000    5.333 
#    0.000    0.000    0.000    3.333    0.000    0.000 
#    0.000    0.000    0.000    0.000    0.000    0.000 
#
# Total GULP energy -803978.708418 kJ/mol
# GULP energy per Si atom -5583.185475 kJ/mol
# Density = 1.699229 g / cm^3
# Si number density = 17.031056 Si / 1000 Ang^3
#
#
#
# Elastic Constant Matrix: (Units=GPa)
#
#
# Indices 1 2 3 4 5 6 
#
# 1 90.8108 49.9621 75.8628 0.0000 0.0000 0.0000
# 2 49.9621 90.8108 75.8628 0.0000 0.0000 0.0000
# 3 75.8628 75.8628 133.2881 0.0000 0.0000 0.0000
# 4 0.0000 0.0000 0.0000 19.1509 0.0000 0.0000
# 5 0.0000 0.0000 0.0000 0.0000 19.1509 0.0000
# 6 0.0000 0.0000 0.0000 0.0000 0.0000 20.4243
#
#
#
# Elastic Compliance Matrix: (Units=1/GPa)
#
#
# Indices 1 2 3 4 5 6 
#
# 1 0.021429 -0.003052 -0.010459 0.000000 0.000000 0.000000
# 2 -0.003052 0.021429 -0.010459 0.000000 0.000000 0.000000
# 3 -0.010459 -0.010459 0.019409 0.000000 0.000000 0.000000
# 4 0.000000 0.000000 0.000000 0.052217 0.000000 0.000000
# 5 0.000000 0.000000 0.000000 0.000000 0.052217 0.000000
# 6 0.000000 0.000000 0.000000 0.000000 0.000000 0.048961
#
#
# Mechanical properties :
#
#
# Convention : Reuss Voigt Hill
#
# Bulk Modulus (GPa) = 69.80913 79.80945 74.80929
# Shear Modulus (GPa) = 18.63046 19.29336 18.96191
#
# Velocity S-wave (km/s) = 3.31102 3.36941 3.34034
# Velocity P-wave (km/s) = 7.46294 7.88036 7.67449
#
# Compressibility (1/GPa) = 0.01432477
#
# Stress axis : x y z
#
# Youngs Moduli (GPa) = 46.66627 46.66627 51.52292
#
# Poissons Ratio (x) = 0.14242 0.53890
# Poissons Ratio (y) = 0.14242 0.53890
# Poissons Ratio (z) = 0.48810 0.48810
#
# Static dielectric constant tensor:
#      x y z
#    x 1.554280 0.000000 0.000000 
#    y 0.000000 1.554280 0.000000 
#    z 0.000000 0.000000 1.585970 
# 
# From -- ./inp_files/8228.got.cif
#   From: 2010.05.17/outbox.cif.g08.bks.cpg/sg194_5_cif.got.tgz:8228.got - 2010.05.20 12:39:09.
