data_PCOD9590008
_publ_section_title
;
Structure prediction by ZEFSAII (Michael W. Deem and Ramdas Pophale) SiO2 
 PCOD9590008
Probable space group: P 63/M M C
;
_chemical_formula_sum "Si O2"
_cell_formula_units_Z 144
_cell_length_a 32.270106
_cell_length_b 32.270106
_cell_length_c 9.052471
_cell_angle_alpha 90.000000
_cell_angle_beta 90.000000
_cell_angle_gamma 120.000000
_cell_volume 8163.916570
_symmetry_space_group_name_H-M "P 63/M M C"
_symmetry_group_IT_number 194
_symmetry_cell_setting 'hexagonal'
loop_
_space_group_symop_operation_xyz
x,y,z
x-y,x,1/2+z
-y,x-y,z
-x,-y,1/2+z
-x+y,-x,z
y,-x+y,1/2+z
x-y,-y,-z
-x,-x+y,-z
y,x,-z
-y,-x,1/2-z
-x+y,y,1/2-z
x,x-y,1/2-z
-x,-y,-z
-x+y,-x,1/2-z
y,-x+y,-z
x,y,1/2-z
x-y,x,-z
-y,x-y,1/2-z
-x+y,y,z
x,x-y,z
-y,-x,z
y,x,1/2+z
x-y,-y,1/2+z
-x,-x+y,1/2+z
loop_
_atom_site_type_symbol
_atom_site_label
_atom_site_fract_x
_atom_site_fract_y
_atom_site_fract_z
Si Si1 0.854260 0.049716 0.571776
Si Si2 0.430348 0.666791 0.926292
Si Si3 0.850310 0.249611 0.421602
Si Si4 0.484207 0.340584 0.574101
Si Si5 0.302891 0.101134 0.580507
Si Si6 0.574886 0.525032 0.077085
O O1 0.853611 0.046907 0.750000
O O2 0.905697 0.094304 0.528285
O O3 0.813623 0.063176 0.529518
O O4 0.841925 0.000000 0.500000
O O5 0.439864 0.668101 0.750000
O O6 0.434491 0.717246 0.966570
O O7 0.376932 0.623069 0.952039
O O8 0.468294 0.657775 0.011876
O O9 0.857629 0.263958 0.250000
O O10 0.798689 0.201312 0.434304
O O11 0.851137 0.290718 0.520510
O O12 0.889596 0.236366 0.478007
O O13 0.486097 0.344244 0.750000
O O14 0.478270 0.382941 0.503625
O O15 0.310244 0.090852 0.750000
O O16 0.302737 0.151369 0.584056
O O17 0.586018 0.536483 0.250000
O O18 0.526790 0.473211 0.067258
O O19 0.562193 0.562193 0.000000
#
# Coordination Sequence:
#
# PCOD9590008 Si02
#       6
#    24  24  24  24  24  24
#     4   9  18  32  51  77 108 141 178 221 268 317
#     4  10  21  38  59  82 110 146 189 237 288 339
#     4  10  20  34  53  77 105 138 178 223 269 318
#     4  12  24  36  54  81 112 146 183 222 267 323
#     4   8  15  30  50  71  98 131 166 206 254 309
#     4  10  21  39  62  84 106 133 167 211 263 317
#
# _framework density 17.638591999999999
#
# number of rings (size 3 to 8) (size 9 to 14) (size 15 to 20)
#    0.000    2.167    0.000    4.667    0.000    8.333 
#    0.000    2.500    0.000    3.167    0.000    0.000 
#    0.000    0.000    0.000    0.000    0.000    0.000 
#
# Total GULP energy -803770.948554 kJ/mol
# GULP energy per Si atom -5581.742698 kJ/mol
# Density = 1.759845 g / cm^3
# Si number density = 17.638592 Si / 1000 Ang^3
#
#
#
# Elastic Constant Matrix: (Units=GPa)
#
#
# Indices 1 2 3 4 5 6 
#
# 1 100.0411 55.0622 64.9726 0.0000 0.0000 0.0000
# 2 55.0622 100.0411 64.9726 0.0000 0.0000 0.0000
# 3 64.9726 64.9726 101.6376 0.0000 0.0000 0.0000
# 4 0.0000 0.0000 0.0000 28.1886 0.0000 0.0000
# 5 0.0000 0.0000 0.0000 0.0000 28.1886 0.0000
# 6 0.0000 0.0000 0.0000 0.0000 0.0000 22.4895
#
#
#
# Elastic Compliance Matrix: (Units=1/GPa)
#
#
# Indices 1 2 3 4 5 6 
#
# 1 0.018057 -0.004175 -0.008874 0.000000 0.000000 0.000000
# 2 -0.004175 0.018057 -0.008874 0.000000 0.000000 0.000000
# 3 -0.008874 -0.008874 0.021185 0.000000 0.000000 0.000000
# 4 0.000000 0.000000 0.000000 0.035475 0.000000 0.000000
# 5 0.000000 0.000000 0.000000 0.000000 0.035475 0.000000
# 6 0.000000 0.000000 0.000000 0.000000 0.000000 0.044465
#
#
# Mechanical properties :
#
#
# Convention : Reuss Voigt Hill
#
# Bulk Modulus (GPa) = 74.33842 74.63718 74.48780
# Shear Modulus (GPa) = 22.61963 23.55419 23.08691
#
# Velocity S-wave (km/s) = 3.58494 3.65825 3.62178
# Velocity P-wave (km/s) = 7.70536 7.76210 7.73378
#
# Compressibility (1/GPa) = 0.01345199
#
# Stress axis : x y z
#
# Youngs Moduli (GPa) = 55.37898 55.37898 47.20371
#
# Poissons Ratio (x) = 0.23122 0.41890
# Poissons Ratio (y) = 0.23122 0.41890
# Poissons Ratio (z) = 0.49145 0.49145
#
# Static dielectric constant tensor:
#      x y z
#    x 1.588870 0.000000 0.000000 
#    y 0.000000 1.588870 0.000000 
#    z 0.000000 0.000000 1.590530 
# 
# From -- ./inp_files/2095.got.cif
#   From: 2010.05.17/outbox.cif.g08.bks.cpg/sg194_2_cif.got.tgz:2095.got - 2010.05.20 12:39:09.
