data_PCOD9590522
_publ_section_title
;
Structure prediction by ZEFSAII (Michael W. Deem and Ramdas Pophale) SiO2 
 PCOD9590522
Probable space group: I 4 3 2
;
_chemical_formula_sum "Si O2"
_cell_formula_units_Z 112
_cell_length_a 17.665873
_cell_length_b 17.665873
_cell_length_c 17.665873
_cell_angle_alpha 90.000000
_cell_angle_beta 90.000000
_cell_angle_gamma 90.000000
_cell_volume 5513.219860
_symmetry_space_group_name_H-M "I 4 3 2"
_symmetry_group_IT_number 211
_symmetry_cell_setting 'cubic'
loop_
_space_group_symop_operation_xyz
x,y,z
-y,x,z
-x,-y,z
y,-x,z
x,-z,y
x,-y,-z
x,z,-y
z,y,-x
-x,y,-z
-z,y,x
z,x,y
y,z,x
-y,-z,x
z,-x,-y
-y,z,-x
-z,-x,y
-z,x,-y
y,-z,-x
y,x,-z
-y,-x,-z
-x,z,y
-x,-z,-y
z,-y,x
-z,-y,-x
1/2+x,1/2+y,1/2+z
1/2-y,1/2+x,1/2+z
1/2-x,1/2-y,1/2+z
1/2+y,1/2-x,1/2+z
1/2+x,1/2-z,1/2+y
1/2+x,1/2-y,1/2-z
1/2+x,1/2+z,1/2-y
1/2+z,1/2+y,1/2-x
1/2-x,1/2+y,1/2-z
1/2-z,1/2+y,1/2+x
1/2+z,1/2+x,1/2+y
1/2+y,1/2+z,1/2+x
1/2-y,1/2-z,1/2+x
1/2+z,1/2-x,1/2-y
1/2-y,1/2+z,1/2-x
1/2-z,1/2-x,1/2+y
1/2-z,1/2+x,1/2-y
1/2+y,1/2-z,1/2-x
1/2+y,1/2+x,1/2-z
1/2-y,1/2-x,1/2-z
1/2-x,1/2+z,1/2+y
1/2-x,1/2-z,1/2-y
1/2+z,1/2-y,1/2+x
1/2-z,1/2-y,1/2-x
loop_
_atom_site_type_symbol
_atom_site_label
_atom_site_fract_x
_atom_site_fract_y
_atom_site_fract_z
Si Si1 0.838254 0.448303 0.072607
Si Si2 0.718294 0.073365 0.100084
Si Si3 0.302902 0.302901 0.697100
O O1 0.855478 0.500000 0.144523
O O2 0.750000 0.430784 0.069217
O O3 0.885842 0.371797 0.076411
O O4 0.858523 0.500000 0.000000
O O5 0.756485 0.126843 0.162088
O O6 0.738217 0.984301 0.102487
O O7 0.250000 0.250000 0.750000
#
# Coordination Sequence:
#
# PCOD9590522 Si02
#       3
#    48  48  16
#     4  11  23  41  68 101 139 183 234 283 338 415
#     4  11  24  44  71  96 133 183 234 288 347 423
#     4  12  27  45  66 102 142 179 226 297 366 423
#
# _framework density 20.314809
#
# number of rings (size 3 to 8) (size 9 to 14) (size 15 to 20)
#    0.000    0.857    4.286    2.571    0.000    7.286 
#    0.000    0.000    0.000    0.000    0.000    6.000 
#    0.000    0.000    0.000    0.000    0.000    0.000 
#
# Total GULP energy -313070.296988 kJ/mol
# GULP energy per Si atom -5590.541018 kJ/mol
# Density = 2.026857 g / cm^3
# Si number density = 20.314809 Si / 1000 Ang^3
#
#
#
# Elastic Constant Matrix: (Units=GPa)
#
#
# Indices 1 2 3 4 5 6 
#
# 1 92.7249 57.8589 57.8588 0.0000 0.0000 0.0000
# 2 57.8589 92.7249 57.8588 0.0000 0.0000 0.0000
# 3 57.8588 57.8588 92.7224 0.0000 0.0000 0.0000
# 4 0.0000 0.0000 0.0000 36.1762 0.0000 0.0000
# 5 0.0000 0.0000 0.0000 0.0000 36.1762 0.0000
# 6 0.0000 0.0000 0.0000 0.0000 0.0000 36.1767
#
#
#
# Elastic Compliance Matrix: (Units=1/GPa)
#
#
# Indices 1 2 3 4 5 6 
#
# 1 0.020720 -0.007961 -0.007962 0.000000 0.000000 0.000000
# 2 -0.007961 0.020720 -0.007962 0.000000 0.000000 0.000000
# 3 -0.007962 -0.007962 0.020721 0.000000 0.000000 0.000000
# 4 0.000000 0.000000 0.000000 0.027642 0.000000 0.000000
# 5 0.000000 0.000000 0.000000 0.000000 0.027642 0.000000
# 6 0.000000 0.000000 0.000000 0.000000 0.000000 0.027642
#
#
# Mechanical properties :
#
#
# Convention : Reuss Voigt Hill
#
# Bulk Modulus (GPa) = 69.48059 69.48059 69.48059
# Shear Modulus (GPa) = 25.29664 28.67886 26.98775
#
# Velocity S-wave (km/s) = 3.53261 3.76136 3.64878
# Velocity P-wave (km/s) = 7.13550 7.28972 7.21302
#
# Compressibility (1/GPa) = 0.01439251
#
# Stress axis : x y z
#
# Youngs Moduli (GPa) = 48.26218 48.26218 48.26022
#
# Poissons Ratio (x) = 0.38422 0.38423
# Poissons Ratio (y) = 0.38422 0.38423
# Poissons Ratio (z) = 0.38425 0.38425
#
# Static dielectric constant tensor:
#      x y z
#    x 1.765400 0.000000 0.000000 
#    y 0.000000 1.765400 0.000000 
#    z 0.000000 0.000000 1.765410 
# 
# From -- ./inp_files/247.got.cif
#   From: 2010.05.17/outbox.cif.g08.bks.cpg/sg211_cif.got.tgz:247.got - 2010.05.20 12:51:03.
