data_PCOD9590472
_publ_section_title
;
Structure prediction by ZEFSAII (Michael W. Deem and Ramdas Pophale) SiO2 
 PCOD9590472
Probable space group: P 4 3 2 
;
_chemical_formula_sum "Si O2"
_cell_formula_units_Z 120
_cell_length_a 17.531297
_cell_length_b 17.531297
_cell_length_c 17.531297
_cell_angle_alpha 90.000000
_cell_angle_beta 90.000000
_cell_angle_gamma 90.000000
_cell_volume 5388.180573
_symmetry_space_group_name_H-M "P 4 3 2 "
_symmetry_group_IT_number 207
_symmetry_cell_setting 'cubic'
loop_
_space_group_symop_operation_xyz
x,y,z
-y,x,z
-x,-y,z
y,-x,z
x,-z,y
x,-y,-z
x,z,-y
z,y,-x
-x,y,-z
-z,y,x
z,x,y
y,z,x
-y,-z,x
z,-x,-y
-y,z,-x
-z,-x,y
-z,x,-y
y,-z,-x
y,x,-z
-y,-x,-z
-x,z,y
-x,-z,-y
z,-y,x
-z,-y,-x
loop_
_atom_site_type_symbol
_atom_site_label
_atom_site_fract_x
_atom_site_fract_y
_atom_site_fract_z
Si Si1 0.416842 0.585318 0.233724
Si Si2 0.872895 0.253388 0.007606
Si Si3 0.834033 0.629343 0.731561
Si Si4 0.345613 0.484865 0.916761
Si Si5 0.767562 0.649519 0.899637
O O1 0.396868 0.501579 0.265855
O O2 0.373079 0.665493 0.232269
O O3 0.402524 0.555032 0.144809
O O4 0.820569 0.324224 0.031469
O O5 0.931784 0.253832 0.077649
O O6 0.819995 0.180006 0.000000
O O7 0.881582 0.555636 0.702726
O O8 0.807097 0.626436 0.818920
O O9 0.877578 0.708710 0.717360
O O10 0.282954 0.419590 0.927685
O O11 0.378302 0.500000 0.000000
#
# Coordination Sequence:
#
# PCOD9590472 Si02
#       5
#    24  24  24  24  24
#     4   8  16  32  54  84 126 169 213 260 306 363
#     4  11  25  44  68  95 118 150 201 263 335 406
#     4  10  21  38  57  92 123 167 213 259 316 381
#     4  10  22  35  57  89 127 170 213 260 311 383
#     4  11  23  38  65  88 127 163 209 263 321 389
#
# _framework density 22.270969000000001
#
# number of rings (size 3 to 8) (size 9 to 14) (size 15 to 20)
#    0.000    2.000    0.000    2.600    5.600    6.400 
#    0.000    4.000    0.000    1.600    0.000    0.000 
#    0.000    0.000    0.000    0.000    0.000    0.000 
#
# Total GULP energy -668209.572988 kJ/mol
# GULP energy per Si atom -5568.413108 kJ/mol
# Density = 2.222028 g / cm^3
# Si number density = 22.270969 Si / 1000 Ang^3
#
#
#
# Elastic Constant Matrix: (Units=GPa)
#
#
# Indices 1 2 3 4 5 6 
#
# 1 91.4397 31.6056 31.6056 0.0000 0.0000 0.0000
# 2 31.6056 91.4397 31.6056 0.0000 0.0000 0.0000
# 3 31.6056 31.6056 91.4397 0.0000 0.0000 0.0000
# 4 0.0000 0.0000 0.0000 25.2495 0.0000 0.0000
# 5 0.0000 0.0000 0.0000 0.0000 25.2495 0.0000
# 6 0.0000 0.0000 0.0000 0.0000 0.0000 25.2495
#
#
#
# Elastic Compliance Matrix: (Units=1/GPa)
#
#
# Indices 1 2 3 4 5 6 
#
# 1 0.013297 -0.003416 -0.003416 0.000000 0.000000 0.000000
# 2 -0.003416 0.013297 -0.003416 0.000000 0.000000 0.000000
# 3 -0.003416 -0.003416 0.013297 0.000000 0.000000 0.000000
# 4 0.000000 0.000000 0.000000 0.039605 0.000000 0.000000
# 5 0.000000 0.000000 0.000000 0.000000 0.039605 0.000000
# 6 0.000000 0.000000 0.000000 0.000000 0.000000 0.039605
#
#
# Mechanical properties :
#
#
# Convention : Reuss Voigt Hill
#
# Bulk Modulus (GPa) = 51.55030 51.55030 51.55030
# Shear Modulus (GPa) = 26.93010 27.11651 27.02331
#
# Velocity S-wave (km/s) = 3.48113 3.49316 3.48715
# Velocity P-wave (km/s) = 6.27334 6.28225 6.27780
#
# Compressibility (1/GPa) = 0.01939853
#
# Stress axis : x y z
#
# Youngs Moduli (GPa) = 75.20322 75.20322 75.20322
#
# Poissons Ratio (x) = 0.25686 0.25686
# Poissons Ratio (y) = 0.25686 0.25686
# Poissons Ratio (z) = 0.25686 0.25686
#
# Static dielectric constant tensor:
#      x y z
#    x 1.911230 0.000000 0.000000 
#    y 0.000000 1.911230 0.000000 
#    z 0.000000 0.000000 1.911230 
# 
# From -- ./inp_files/371.got.cif
#   From: 2010.05.17/outbox.cif.g08.bks.cpg/sg207_cif.got.tgz:371.got - 2010.05.20 12:49:33.
