data_PCOD9590032
_publ_section_title
;
Structure prediction by ZEFSAII (Michael W. Deem and Ramdas Pophale) SiO2 
 PCOD9590032
Probable space group: P 63/M M C
;
_chemical_formula_sum "Si O2"
_cell_formula_units_Z 132
_cell_length_a 24.069990
_cell_length_b 24.069990
_cell_length_c 15.317722
_cell_angle_alpha 90.000000
_cell_angle_beta 90.000000
_cell_angle_gamma 120.000000
_cell_volume 7685.579772
_symmetry_space_group_name_H-M "P 63/M M C"
_symmetry_group_IT_number 194
_symmetry_cell_setting 'hexagonal'
loop_
_space_group_symop_operation_xyz
x,y,z
x-y,x,1/2+z
-y,x-y,z
-x,-y,1/2+z
-x+y,-x,z
y,-x+y,1/2+z
x-y,-y,-z
-x,-x+y,-z
y,x,-z
-y,-x,1/2-z
-x+y,y,1/2-z
x,x-y,1/2-z
-x,-y,-z
-x+y,-x,1/2-z
y,-x+y,-z
x,y,1/2-z
x-y,x,-z
-y,x-y,1/2-z
-x+y,y,z
x,x-y,z
-y,-x,z
y,x,1/2+z
x-y,-y,1/2+z
-x,-x+y,1/2+z
loop_
_atom_site_type_symbol
_atom_site_label
_atom_site_fract_x
_atom_site_fract_y
_atom_site_fract_z
Si Si1 0.446057 0.159134 0.750000
Si Si2 0.989591 0.337289 0.750000
Si Si3 0.537260 0.204733 0.916433
Si Si4 0.886181 0.772361 0.143614
Si Si5 0.547832 0.838825 0.588791
Si Si6 0.480845 0.385730 0.250000
Si Si7 0.040198 0.080396 0.644034
Si Si8 0.259669 0.951366 0.919155
O O1 0.422291 0.211146 0.750000
O O2 0.489998 0.173353 0.835076
O O3 0.390863 0.086301 0.750000
O O4 0.026226 0.415133 0.750000
O O5 0.012924 0.316042 0.835246
O O6 0.596730 0.193460 0.912011
O O7 0.560470 0.280235 0.913429
O O8 0.497640 0.177627 0.005323
O O9 0.884216 0.768431 0.250000
O O10 0.923440 0.846880 0.115196
O O11 0.814192 0.737033 0.107008
O O12 0.547664 0.773832 0.616158
O O13 0.524061 0.867054 0.665948
O O14 0.620322 0.891945 0.563515
O O15 0.545434 0.454567 0.250000
O O16 0.041388 0.082776 0.750000
O O17 0.069480 0.034740 0.618082
O O18 0.281100 0.000000 0.000000
#
# Coordination Sequence:
#
# PCOD9590032 Si02
#       8
#    12  12  24  12  24  12  12  24
#     4  10  21  38  57  79 110 147 188 231 291 350
#     4  10  22  40  58  83 115 154 189 238 303 345
#     4  10  20  34  55  81 110 146 188 236 286 349
#     4  11  20  38  65  88 116 156 205 240 298 359
#     4  10  20  36  58  80 114 160 195 238 304 358
#     4  10  21  35  58  87 115 146 201 253 294 355
#     4   7  14  32  55  79 110 146 179 225 281 343
#     4  11  22  38  60  87 119 150 198 251 289 351
#
# _framework density 17.175021999999998
#
# number of rings (size 3 to 8) (size 9 to 14) (size 15 to 20)
#    0.182    1.818    1.818    2.364    0.000    0.727 
#    3.273    0.909    0.000    9.091    0.000    0.000 
#    0.000    0.000    0.000    0.000    0.000    0.000 
#
# Total GULP energy -736521.422619 kJ/mol
# GULP energy per Si atom -5579.707747 kJ/mol
# Density = 1.713593 g / cm^3
# Si number density = 17.175022 Si / 1000 Ang^3
#
#
#
# Elastic Constant Matrix: (Units=GPa)
#
#
# Indices 1 2 3 4 5 6 
#
# 1 137.4996 98.0306 43.2238 0.0000 0.0000 0.0000
# 2 98.0306 137.4996 43.2238 0.0000 0.0000 0.0000
# 3 43.2238 43.2238 78.7720 0.0000 0.0000 0.0000
# 4 0.0000 0.0000 0.0000 21.4804 0.0000 0.0000
# 5 0.0000 0.0000 0.0000 0.0000 21.4804 0.0000
# 6 0.0000 0.0000 0.0000 0.0000 0.0000 19.7345
#
#
#
# Elastic Compliance Matrix: (Units=1/GPa)
#
#
# Indices 1 2 3 4 5 6 
#
# 1 0.015326 -0.010010 -0.002917 0.000000 0.000000 0.000000
# 2 -0.010010 0.015326 -0.002917 0.000000 0.000000 0.000000
# 3 -0.002917 -0.002917 0.015896 0.000000 0.000000 0.000000
# 4 0.000000 0.000000 0.000000 0.046554 0.000000 0.000000
# 5 0.000000 0.000000 0.000000 0.000000 0.046554 0.000000
# 6 0.000000 0.000000 0.000000 0.000000 0.000000 0.050673
#
#
# Mechanical properties :
#
#
# Convention : Reuss Voigt Hill
#
# Bulk Modulus (GPa) = 67.29340 80.30307 73.79823
# Shear Modulus (GPa) = 22.02911 23.82525 22.92718
#
# Velocity S-wave (km/s) = 3.58526 3.72856 3.65761
# Velocity P-wave (km/s) = 7.51031 8.08662 7.80379
#
# Compressibility (1/GPa) = 0.01486030
#
# Stress axis : x y z
#
# Youngs Moduli (GPa) = 65.24675 65.24675 62.90743
#
# Poissons Ratio (x) = 0.65312 0.18352
# Poissons Ratio (y) = 0.65312 0.18352
# Poissons Ratio (z) = 0.19034 0.19034
#
# Static dielectric constant tensor:
#      x y z
#    x 1.560230 0.000000 0.000000 
#    y 0.000000 1.560230 0.000000 
#    z 0.000000 0.000000 1.569560 
# 
# From -- ./inp_files/5346.got.cif
#   From: 2010.05.17/outbox.cif.g08.bks.cpg/sg194_3_cif.got.tgz:5346.got - 2010.05.20 12:39:09.
