data_PCOD9590694
_publ_section_title
;
Structure prediction by ZEFSAII (Michael W. Deem and Ramdas Pophale) SiO2 
 PCOD9590694
Probable space group: P M 3 M
;
_chemical_formula_sum "Si O2"
_cell_formula_units_Z 192
_cell_length_a 24.837949
_cell_length_b 24.837949
_cell_length_c 24.837949
_cell_angle_alpha 90.000000
_cell_angle_beta 90.000000
_cell_angle_gamma 90.000000
_cell_volume 15323.119659
_symmetry_space_group_name_H-M "P M 3 M"
_symmetry_group_IT_number 221
_symmetry_cell_setting 'cubic'
loop_
_space_group_symop_operation_xyz
x,y,z
-y,x,z
-x,-y,z
y,-x,z
x,-z,y
x,-y,-z
x,z,-y
z,y,-x
-x,y,-z
-z,y,x
z,x,y
y,z,x
-y,-z,x
z,-x,-y
-y,z,-x
-z,-x,y
-z,x,-y
y,-z,-x
y,x,-z
-y,-x,-z
-x,z,y
-x,-z,-y
z,-y,x
-z,-y,-x
-x,-y,-z
y,-x,-z
x,y,-z
-y,x,-z
-x,z,-y
-x,y,z
-x,-z,y
-z,-y,x
x,-y,z
z,-y,-x
-z,-x,-y
-y,-z,-x
y,z,-x
-z,x,y
y,-z,x
z,x,-y
z,-x,y
-y,z,x
-y,-x,z
y,x,z
x,-z,-y
x,z,y
-z,y,-x
z,y,x
loop_
_atom_site_type_symbol
_atom_site_label
_atom_site_fract_x
_atom_site_fract_y
_atom_site_fract_z
Si Si1 0.347996 0.885959 0.437604
Si Si2 0.277120 0.810146 0.634116
Si Si3 0.000000 0.674937 0.765697
Si Si4 0.287694 0.000000 0.438461
Si Si5 0.709687 0.797783 0.115679
O O1 0.358932 0.875513 0.500000
O O2 0.400669 0.883055 0.400669
O O3 0.305599 0.843169 0.413337
O O4 0.322949 0.945853 0.432764
O O5 0.240068 0.759932 0.617812
O O6 0.323448 0.793131 0.676553
O O7 0.238943 0.851660 0.666784
O O8 0.000000 0.611521 0.753167
O O9 0.946176 0.692197 0.796543
O O10 0.000000 0.709107 0.709107
O O11 0.265461 0.000000 0.500000
O O12 0.766157 0.766157 0.120733
O O13 0.711859 0.854802 0.145199
#
# Coordination Sequence:
#
# PCOD9590694 Si02
#       5
#    48  48  24  24  48
#     4  10  19  29  41  55  73  99 128 159 192 225
#     4   9  16  26  40  58  79 100 121 148 187 231
#     4  10  16  26  44  59  77 105 134 160 190 232
#     4  10  18  28  41  55  74 100 128 161 194 227
#     4   9  16  25  40  61  83 104 127 158 193 231
#
# _framework density 12.530085
#
# number of rings (size 3 to 8) (size 9 to 14) (size 15 to 20)
#    0.000    2.500    2.500    1.625    0.000    2.750 
#    0.000    0.000    0.000    3.375    0.000    0.000 
#    0.000    0.000    0.000    1.125    0.000    0.000 
#
# Total GULP energy -1069325.628654 kJ/mol
# GULP energy per Si atom -5569.404316 kJ/mol
# Density = 1.250157 g / cm^3
# Si number density = 12.530085 Si / 1000 Ang^3
#
#
#
# Elastic Constant Matrix: (Units=GPa)
#
#
# Indices 1 2 3 4 5 6 
#
# 1 84.0861 48.8470 48.8470 0.0000 0.0000 0.0000
# 2 48.8470 84.0861 48.8470 0.0000 0.0000 0.0000
# 3 48.8470 48.8470 84.0861 0.0000 0.0000 0.0000
# 4 0.0000 0.0000 0.0000 13.6350 0.0000 0.0000
# 5 0.0000 0.0000 0.0000 0.0000 13.6350 0.0000
# 6 0.0000 0.0000 0.0000 0.0000 0.0000 13.6350
#
#
#
# Elastic Compliance Matrix: (Units=1/GPa)
#
#
# Indices 1 2 3 4 5 6 
#
# 1 0.020752 -0.007625 -0.007625 0.000000 0.000000 0.000000
# 2 -0.007625 0.020752 -0.007625 0.000000 0.000000 0.000000
# 3 -0.007625 -0.007625 0.020752 0.000000 0.000000 0.000000
# 4 0.000000 0.000000 0.000000 0.073341 0.000000 0.000000
# 5 0.000000 0.000000 0.000000 0.000000 0.073341 0.000000
# 6 0.000000 0.000000 0.000000 0.000000 0.000000 0.073341
#
#
# Mechanical properties :
#
#
# Convention : Reuss Voigt Hill
#
# Bulk Modulus (GPa) = 60.59335 60.59335 60.59335
# Shear Modulus (GPa) = 14.99104 15.22881 15.10993
#
# Velocity S-wave (km/s) = 3.46266 3.49001 3.47636
# Velocity P-wave (km/s) = 8.02807 8.04385 8.03597
#
# Compressibility (1/GPa) = 0.01650346
#
# Stress axis : x y z
#
# Youngs Moduli (GPa) = 48.18791 48.18791 48.18791
#
# Poissons Ratio (x) = 0.36746 0.36746
# Poissons Ratio (y) = 0.36746 0.36746
# Poissons Ratio (z) = 0.36746 0.36746
#
# Static dielectric constant tensor:
#      x y z
#    x 1.397200 0.000000 0.000000 
#    y 0.000000 1.397200 0.000000 
#    z 0.000000 0.000000 1.397200 
# 
# From -- ./inp_files/631.got.cif
#   From: 2010.05.17/outbox.cif.g08.bks.cpg/sg221_cif.got.tgz:631.got - 2010.05.20 12:54:48.
