data_PKWN-ATS
_publ_section_title
;
Structure prediction by ZEFSAII (Michael W. Deem and David J. Earl) SiO2 
 PKWN-ATS
Probable space group: C M C M
;
_chemical_formula_sum "Si O2"
_cell_formula_units_Z 24
_cell_length_a                  13.1640
_cell_length_b                  21.5840
_cell_length_c                   5.2570
_cell_angle_alpha               90.0000
_cell_angle_beta                90.0000
_cell_angle_gamma               90.0000
_cell_volume 1493.680746
_symmetry_space_group_name_H-M "C M C M"
_space_group_IT_number 63
_symmetry_cell_setting orthorhombic
loop_
_space_group_symop_operation_xyz
x,y,z
-x,-y,1/2+z
x,-y,-z
-x,y,1/2-z
-x,-y,-z
x,y,1/2-z
-x,y,z
x,-y,1/2+z
1/2+x,1/2+y,z
1/2-x,1/2-y,1/2+z
1/2+x,1/2-y,-z
1/2-x,1/2+y,1/2-z
1/2-x,1/2-y,-z
1/2+x,1/2+y,1/2-z
1/2-x,1/2+y,z
1/2+x,1/2-y,1/2+z
loop_
_atom_site_type_symbol
_atom_site_label
_atom_site_fract_x
_atom_site_fract_y
_atom_site_fract_z
O       O1      0.6886    0.1012    0.7500
O       O2      0.6411    0.0000    0.5000
O       O3      0.5000    0.0612    0.7500
O       O4      0.3645    0.2015    0.0000
O       O5      0.1915    0.1986    0.7500
O       O6      0.5000    0.2668    0.2500
Si       Si1      0.6174    0.0405    0.7500
Si       Si2      0.3079    0.1758    0.7500
Si       Si3      0.6159    0.2428    0.2500
#
# Coordination Sequence:
#
# PKWN-ATS Si02
#       3
#     8   8   8
#     4  10  19  30  46  67  93 124 154 189 232 277
#     4  10  20  32  49  73  97 124 157 193 236 281
#     4  10  19  32  51  72  96 124 155 196 238 278
#
# _framework density 16.0676905405
#
# number of rings (size 3 to 8) (size 9 to 14) (size 15 to 20)
#    0.000    2.000    0.000    5.000    0.000    2.667 
#    0.000    0.000    0.000    2.000    0.000    0.000 
#    0.000    0.000    0.000    0.000    0.000    0.000 
#
# Energy per Si from SLC FF is -12404.431900.
# Energy per Si from BKS FF is -5581.151200
# 
# From -- /home/earl/hixson/work/zeo-known/contents/ATS.cif
