data_PKWN-BIK
_publ_section_title
;
Structure prediction by ZEFSAII (Michael W. Deem and David J. Earl) SiO2 
 PKWN-BIK
Probable space group: C M C M
;
_chemical_formula_sum "Si O2"
_cell_formula_units_Z 12
_cell_length_a                   7.5400
_cell_length_b                  16.2220
_cell_length_c                   5.2560
_cell_angle_alpha               90.0000
_cell_angle_beta                90.0000
_cell_angle_gamma               90.0000
_cell_volume 642.881753
_symmetry_space_group_name_H-M "C M C M"
_space_group_IT_number 63
_symmetry_cell_setting orthorhombic
loop_
_space_group_symop_operation_xyz
x,y,z
-x,-y,1/2+z
x,-y,-z
-x,y,1/2-z
-x,-y,-z
x,y,1/2-z
-x,y,z
x,-y,1/2+z
1/2+x,1/2+y,z
1/2-x,1/2-y,1/2+z
1/2+x,1/2-y,-z
1/2-x,1/2+y,1/2-z
1/2-x,1/2-y,-z
1/2+x,1/2+y,1/2-z
1/2-x,1/2+y,z
1/2+x,1/2-y,1/2+z
loop_
_atom_site_type_symbol
_atom_site_label
_atom_site_fract_x
_atom_site_fract_y
_atom_site_fract_z
O       O1      0.2500    0.2500    0.5000
O       O2      0.3256    0.1143    0.2500
O       O3      0.0000    0.1714    0.2500
O       O4      0.5000    0.0000    0.0000
Si       Si1      0.2065    0.1966    0.2500
Si       Si2      0.5000    0.0571    0.2500
#
# Coordination Sequence:
#
# PKWN-BIK Si02
#       2
#     8   4
#     4  12  23  43  71  97 128 179 226 264 323 404
#     4  12  26  42  66 102 140 164 216 288 334 372
#
# _framework density 18.6659520803
#
# number of rings (size 3 to 8) (size 9 to 14) (size 15 to 20)
#    0.000    0.000    6.667    4.000    0.000    2.667 
#    0.000    0.000    0.000    0.000    0.000    0.000 
#    0.000    0.000    0.000    0.000    0.000    0.000 
#
# Energy per Si from SLC FF is -12406.736000.
# Energy per Si from BKS FF is -5599.047100
# 
# From -- /home/earl/hixson/work/zeo-known/contents/BIK.cif
