data_PKWN-BRE
_publ_section_title
;
Structure prediction by ZEFSAII (Michael W. Deem and David J. Earl) SiO2 
 PKWN-BRE
Probable space group: P 21/M
;
_chemical_formula_sum "Si O2"
_cell_formula_units_Z 16
_cell_length_a                   6.7600
_cell_length_b                  17.0930
_cell_length_c                   7.6030
_cell_angle_alpha               90.0000
_cell_angle_beta                95.8270
_cell_angle_gamma               90.0000
_cell_volume 873.977298
_symmetry_space_group_name_H-M "P 21/M"
_space_group_IT_number 11
_symmetry_cell_setting monoclinic
loop_
_space_group_symop_operation_xyz
x,y,z
-x,1/2+y,-z
-x,-y,-z
x,1/2-y,z
loop_
_atom_site_type_symbol
_atom_site_label
_atom_site_fract_x
_atom_site_fract_y
_atom_site_fract_z
O       O1      0.3807    0.1011    0.0303
O       O2      0.0981    0.0951    0.7660
O       O3      0.4051    0.0003    0.7723
O       O4      0.4506    0.1505    0.7148
O       O5      0.2059    0.0002    0.2248
O       O6      0.4169    0.1155    0.3765
O       O7      0.7700    0.1194    0.5567
O       O8      0.5730    0.2500    0.4848
O       O9      0.0000    0.0000    0.5000
Si       Si1      0.3336    0.0868    0.8209
Si       Si2      0.3997    0.0542    0.2150
Si       Si3      0.5527    0.1589    0.5333
Si       Si4      0.9155    0.0535    0.6493
#
# Coordination Sequence:
#
# PKWN-BRE Si02
#       4
#     4   4   4   4
#     4  10  20  37  61  83 110 144 192 238 278 328
#     4  10  20  36  61  85 107 147 191 234 277 339
#     4  11  23  37  54  82 119 152 184 233 293 342
#     4  11  18  37  62  85 110 147 195 236 276 332
#
# _framework density 18.3071116748
#
# number of rings (size 3 to 8) (size 9 to 14) (size 15 to 20)
#    0.000    1.500    5.000    2.250    0.000    2.000 
#    0.000    0.000    0.000    0.000    0.000    0.000 
#    0.000    0.000    0.000    0.000    0.000    0.000 
#
# Energy per Si from SLC FF is -12404.246900.
# Energy per Si from BKS FF is -5584.024900
# 
# From -- /home/earl/hixson/work/zeo-known/contents/BRE.cif
