data_PKWN-MTW
_publ_section_title
;
Structure prediction by ZEFSAII (Michael W. Deem and David J. Earl) SiO2 
 PKWN-MTW
Probable space group: C 2/M
;
_chemical_formula_sum "Si O2"
_cell_formula_units_Z 28
_cell_length_a                  25.5520
_cell_length_b                   5.2560
_cell_length_c                  12.1170
_cell_angle_alpha               90.0000
_cell_angle_beta               109.3120
_cell_angle_gamma               90.0000
_cell_volume 1535.761974
_symmetry_space_group_name_H-M "C 2/M"
_space_group_IT_number 12
_symmetry_cell_setting monoclinic
loop_
_space_group_symop_operation_xyz
x,y,z
-x,y,-z
-x,-y,-z
x,-y,z
1/2+x,1/2+y,z
1/2-x,1/2+y,-z
1/2-x,1/2-y,-z
1/2+x,1/2-y,z
loop_
_atom_site_type_symbol
_atom_site_label
_atom_site_fract_x
_atom_site_fract_y
_atom_site_fract_z
O       O1      0.0045    0.0000    0.1313
O       O2      0.0958    0.7501    0.2421
O       O3      0.0876    0.0000    0.0490
O       O4      0.0826    0.2500    0.8576
O       O5      0.3440    0.0000    0.5710
O       O6      0.3153    0.0000    0.7595
O       O7      0.3434    0.0000    0.2079
O       O8      0.3374    0.0000    0.9870
O       O9      0.2508    0.7499    0.8515
O      O10      0.2838    0.0000    0.3478
O      O11      0.2500    0.7500    0.5000
Si       Si1      0.0710    0.0000    0.1660
Si       Si2      0.0621    0.0000    0.9083
Si       Si3      0.3671    0.0000    0.7119
Si       Si4      0.3789    0.0000    0.1199
Si       Si5      0.2885    0.0000    0.8625
Si       Si6      0.2813    0.0000    0.2134
Si       Si7      0.2818    0.0000    0.4791
#
# Coordination Sequence:
#
# PKWN-MTW Si02
#       7
#     4   4   4   4   4   4   4
#     4  11  22  38  60  88 113 147 190 243 290 328
#     4  11  22  38  60  86 115 147 191 238 289 339
#     4  12  21  37  62  84 119 147 188 239 286 326
#     4  12  23  37  59  85 120 154 184 231 288 343
#     4  12  21  37  58  87 119 154 182 227 287 346
#     4  12  24  39  55  85 122 156 188 225 280 347
#     4  12  23  38  59  83 115 155 192 233 271 328
#
# _framework density 18.2319919788
#
# number of rings (size 3 to 8) (size 9 to 14) (size 15 to 20)
#    0.000    0.286    5.714    5.143    0.000    2.286 
#    0.000    0.000    0.000    5.143    0.000    0.000 
#    0.000    0.000    0.000    0.000    0.000    0.000 
#
# Energy per Si from SLC FF is -12407.146300.
# Energy per Si from BKS FF is -5595.273100
# 
# From -- /home/earl/hixson/work/zeo-known/contents/MTW.cif
