data_PKWN-MVY
_publ_section_title
;
Structure prediction by ZEFSAII (Michael W. Deem and David J. Earl) SiO2 
 PKWN-MVY
Probable space group: P n n m
;
_chemical_formula_sum "Si O2"
_cell_formula_units_Z 12
_cell_length_a                   5.0210
_cell_length_b                   8.1510
_cell_length_c                  13.9770
_cell_angle_alpha               90.0000
_cell_angle_beta                90.0000
_cell_angle_gamma               90.0000
_cell_volume 572.025092
_symmetry_space_group_name_H-M     "P n n m"
_space_group_IT_number 58
_symmetry_cell_setting             orthorhombic
loop_
_space_group_symop_operation_xyz
x,y,z
-x,-y,z
1/2-x,1/2+y,1/2-z
1/2+x,1/2-y,1/2-z
-x,-y,-z
x,y,-z
1/2+x,1/2-y,1/2+z
1/2-x,1/2+y,1/2+z
loop_
_atom_site_type_symbol
_atom_site_label
_atom_site_fract_x
_atom_site_fract_y
_atom_site_fract_z
O 	O1	0.1370    0.2998    0.2713
O 	O2	0.2777    0.2676    0.0952
O 	O3	0.5000    0.5000    0.1981
O 	O4	0.0000    0.0000    0.5000
O 	O5	0.5000    0.0000    0.5000
Si 	Si1	0.3882    0.3151    0.2000
Si 	Si3	0.2501    0.8772    0.5000
#
# Coordination Sequence:
#
# PKWN-MVY Si02
#       2
#     8   4
#     4  11  22  39  61  88 118 155 199 245 291 348
#     4  10  20  38  61  84 115 162 199 226 287 372
#
# _framework density 20.86865455
#
# number of rings (size 3 to 8) (size 9 to 14) (size 15 to 20)
#    0.000    1.333    0.000    10.000    0.000    0.000
#    0.000    10.000    0.000    0.000    0.000    0.000
#    0.000    0.000    0.000    0.000    0.000    0.000
#
# Energy per Si from SLC FF is -12393.68926.
# Energy per Si from BKS FF is -5581.90753.
# 
# From -- /scratch8/ramdas/Hypothetical/2006_Fig/known_zeolites/known_cif/new_zeolites/MVY.cif
