data_PKWN-PON
_publ_section_title
;
Structure prediction by ZEFSAII (Michael W. Deem and David J. Earl) SiO2 
 PKWN-PON
Probable space group: P C A 21
;
_chemical_formula_sum "Si O2"
_cell_formula_units_Z 24
_cell_length_a                   8.9140
_cell_length_b                   9.2090
_cell_length_c                  16.0870
_cell_angle_alpha               90.0000
_cell_angle_beta                90.0000
_cell_angle_gamma               90.0000
_cell_volume 1320.566161
_symmetry_space_group_name_H-M "P C A 21"
_space_group_IT_number 29
_symmetry_cell_setting orthorhombic
loop_
_space_group_symop_operation_xyz
x,y,z
-x,-y,1/2+z
1/2-x,y,1/2+z
1/2+x,-y,z
loop_
_atom_site_type_symbol
_atom_site_label
_atom_site_fract_x
_atom_site_fract_y
_atom_site_fract_z
O       O1      0.3352    0.8557    0.3875
O       O2      0.0931    0.7455    0.4572
O       O3      0.0902    0.8130    0.2995
O       O4      0.0976    0.0198    0.4127
O       O5      0.1414    0.3621    0.8084
O       O6      0.8711    0.4663    0.7784
O       O7      0.0118    0.3151    0.6641
O       O8      0.9860    0.7625    0.0068
O       O9      0.2260    0.6406    0.0700
O      O10      0.9861    0.4845    0.0464
O      O11      0.0855    0.2830    0.3511
O      O12      0.2225    0.4934    0.4320
Si       Si1      0.1548    0.8593    0.3892
Si       Si2      0.0453    0.6434    0.0722
Si       Si3      0.1992    0.4181    0.3426
Si      Si11      0.9841    0.3328    0.7624
Si      Si12      0.1502    0.5985    0.5012
Si      Si13      0.0069    0.1709    0.4144
#
# Coordination Sequence:
#
# PKWN-PON Si02
#       6
#     4   4   4   4   4   4
#     4  10  20  36  56  76 105 144 180 215 260 323
#     4  10  20  34  54  82 108 134 175 224 264 304
#     4  10  19  34  56  78 106 144 179 211 262 321
#     4  11  20  34  55  83 110 136 176 227 264 304
#     4   9  18  34  54  75 104 142 176 211 260 319
#     4  10  21  38  57  76 105 146 182 212 262 325
#
# _framework density 18.1740231607
#
# number of rings (size 3 to 8) (size 9 to 14) (size 15 to 20)
#    0.000    2.000    0.000    7.000    0.000    1.333 
#    0.000    8.333    0.000    0.000    0.000    0.000 
#    0.000    0.000    0.000    0.000    0.000    0.000 
#
# Energy per Si from SLC FF is -12402.487000.
# Energy per Si from BKS FF is -5581.674300
# 
# From -- /home/earl/hixson/work/zeo-known/contents/PON.cif
