data_PKWN-RTE
_publ_section_title
;
Structure prediction by ZEFSAII (Michael W. Deem and David J. Earl) SiO2 
 PKWN-RTE
Probable space group: C 2/M
;
_chemical_formula_sum "Si O2"
_cell_formula_units_Z 24
_cell_length_a                  14.0980
_cell_length_b                  13.6700
_cell_length_c                   7.4310
_cell_angle_alpha               90.0000
_cell_angle_beta               102.4210
_cell_angle_gamma               90.0000
_cell_volume 1398.579361
_symmetry_space_group_name_H-M "C 2/M"
_space_group_IT_number 12
_symmetry_cell_setting monoclinic
loop_
_space_group_symop_operation_xyz
x,y,z
-x,y,-z
-x,-y,-z
x,-y,z
1/2+x,1/2+y,z
1/2-x,1/2+y,-z
1/2-x,1/2-y,-z
1/2+x,1/2-y,z
loop_
_atom_site_type_symbol
_atom_site_label
_atom_site_fract_x
_atom_site_fract_y
_atom_site_fract_z
O       O1      0.6879    0.1236    0.6245
O       O2      0.5000    0.1456    0.5000
O       O3      0.6211    0.1807    0.2835
O       O4      0.5918    0.0000    0.3808
O       O5      0.6411    0.1434    0.9466
O       O6      0.8193    0.1812    0.9123
O       O7      0.7559    0.0000    0.8921
O       O8      0.5000    0.2579    0.0000
Si       Si1      0.6001    0.1124    0.4471
Si       Si2      0.7261    0.1122    0.8437
Si       Si3      0.6107    0.2251    0.0797
#
# Coordination Sequence:
#
# PKWN-RTE Si02
#       3
#     8   8   8
#     4  10  19  33  56  81 105 136 175 219 262 307
#     4  10  22  37  54  79 108 140 176 215 262 312
#     4  11  21  35  57  80 106 139 176 218 261 311
#
# _framework density 17.1602703889
#
# number of rings (size 3 to 8) (size 9 to 14) (size 15 to 20)
#    0.000    1.667    3.333    2.000    0.000    2.000 
#    0.000    0.000    0.000    1.000    0.000    0.000 
#    0.000    0.000    0.000    0.000    0.000    0.000 
#
# Energy per Si from SLC FF is -12405.332300.
# Energy per Si from BKS FF is -5581.408700
# 
# From -- /home/earl/hixson/work/zeo-known/contents/RTE.cif
