data_PKWN-THO
_publ_section_title
;
Structure prediction by ZEFSAII (Michael W. Deem and David J. Earl) SiO2 
 PKWN-THO
Probable space group: P M M A
;
_chemical_formula_sum "Si O2"
_cell_formula_units_Z 10
_cell_length_a                  14.0000
_cell_length_b                   7.0000
_cell_length_c                   6.4820
_cell_angle_alpha               90.0000
_cell_angle_beta                90.0000
_cell_angle_gamma               90.0000
_cell_volume 635.236000
_symmetry_space_group_name_H-M "P M M A"
_space_group_IT_number 51
_symmetry_cell_setting orthorhombic
loop_
_space_group_symop_operation_xyz
x,y,z
1/2-x,-y,z
1/2+x,-y,-z
-x,y,-z
-x,-y,-z
1/2+x,y,-z
1/2-x,y,z
x,-y,z
loop_
_atom_site_type_symbol
_atom_site_label
_atom_site_fract_x
_atom_site_fract_y
_atom_site_fract_z
O       O1      0.0000    0.0000    0.5000
O       O2      0.1551    0.1898    0.3818
O       O3      0.1550    0.0000    0.7368
O       O4      0.2500    0.5000    0.2635
O       O5      0.2500    0.1899    0.0268
Si       Si1      0.1161    0.0000    0.5001
Si       Si2      0.2500    0.2679    0.2634
Si       Si3      0.2500    0.0000    0.8818
#
# Coordination Sequence:
#
# PKWN-THO Si02
#       3
#     4   4   2
#     4   9  19  35  52  72 100 131 163 201 244 290
#     4   9  19  33  50  74 100 129 165 201 242 290
#     4   8  18  34  50  68 100 130 160 204 246 286
#
# _framework density 15.7421808588
#
# number of rings (size 3 to 8) (size 9 to 14) (size 15 to 20)
#    0.000    4.000    0.000    0.000    0.000   14.400 
#    0.000    4.000    0.000    0.000    0.000    0.000 
#    0.000    0.000    0.000    0.000    0.000    0.000 
#
# Energy per Si from SLC FF is -12395.422500.
# Energy per Si from BKS FF is -5566.995800
# 
# From -- /home/earl/hixson/work/zeo-known/contents/THO.cif
